/*---------------------------------------------------------------------------*\
| =========                 |                                                 |
| \\      /  F ield         | OpenFOAM: The Open Source CFD Toolbox           |
|  \\    /   O peration     | Version:  2506                                  |
|   \\  /    A nd           | Website:  www.openfoam.com                      |
|    \\/     M anipulation  |                                                 |
\*---------------------------------------------------------------------------*/
Build  : _615aae61-20250627 OPENFOAM=2506 version=2506
Arch   : "LSB;label=32;scalar=64"
Exec   : frozenFoam -parallel
Date   : Oct 12 2025
Time   : 15:16:17
Host   : 8401b6293c3b
PID    : 295
I/O    : uncollated
Case   : /home/openfoam/OpenFOAM/openfoam-v2506/run/h42_les
nProcs : 4
Hosts  :
(
    (8401b6293c3b 4)
)
Pstream initialized with:
    node communication : off [type=host] (4 ranks, 1 nodes)
    topology controls  : none
    consensus exchange : 0 (tuning: 0)
    exchange algorithm : 0
    commsType          : nonBlocking
    polling iterations : 0
trapFpe: Floating point exception trapping enabled (FOAM_SIGFPE).
fileModificationChecking : Monitoring run-time modified files using timeStampMaster (fileModificationSkew 5, maxFileModificationPolls 20)
allowSystemOperations : Allowing user-supplied system call operations

// * * * * * * * * * * * * * * * * * * * * * * * * * * * * * * * * * * * * * //
Create time

Create mesh for time = 0


SIMPLE: no convergence criteria found. Calculations will run for 6000 steps.

Reading field p

Reading field U

Reading/calculating face flux field phi

Selecting incompressible transport model Newtonian
Selecting turbulence model type RAS
Selecting RAS turbulence model frozenSST
Selecting patchDistMethod meshWave
RAS
{
    RASModel        frozenSST;
    turbulence      on;
    printCoeffs     on;
    alphaK1         0.85;
    alphaK2         1;
    alphaOmega1     0.5;
    alphaOmega2     0.856;
    gamma1          0.555556;
    gamma2          0.44;
    beta1           0.075;
    beta2           0.0828;
    betaStar        0.09;
    a1              0.31;
    b1              1;
    c1              10;
    F3              false;
    decayControl    false;
    kInf            0;
    omegaInf        0;
}

No MRF models present

No finite volume options present

Starting time loop

--> FOAM Warning : 
    From void Foam::timeControl::read(const Foam::dictionary&)
    in file db/functionObjects/timeControl/timeControl.C at line 131
    Reading "system/controlDict/functions/yPlus1" at line 55
    Found deprecated 'outputControl'
    Use 'writeControl' with 'writeInterval'
Time = 1

DILUPBiCGStab:  Solving for omega, Initial residual = 0.0495402, Final residual = 9.96016e-11, No Iterations 9
ExecutionTime = 0.49 s  ClockTime = 1 s

Time = 2

DILUPBiCGStab:  Solving for omega, Initial residual = 0.737579, Final residual = 7.0092e-11, No Iterations 5
ExecutionTime = 0.54 s  ClockTime = 1 s

Time = 3

DILUPBiCGStab:  Solving for omega, Initial residual = 0.0862381, Final residual = 9.52829e-11, No Iterations 7
ExecutionTime = 0.59 s  ClockTime = 1 s

Time = 4

DILUPBiCGStab:  Solving for omega, Initial residual = 0.00782286, Final residual = 9.75328e-11, No Iterations 7
ExecutionTime = 0.64 s  ClockTime = 1 s

Time = 5

DILUPBiCGStab:  Solving for omega, Initial residual = 0.00306925, Final residual = 4.04755e-11, No Iterations 8
ExecutionTime = 0.69 s  ClockTime = 1 s

Time = 6

DILUPBiCGStab:  Solving for omega, Initial residual = 0.00209983, Final residual = 5.04252e-11, No Iterations 8
ExecutionTime = 0.73 s  ClockTime = 1 s

Time = 7

DILUPBiCGStab:  Solving for omega, Initial residual = 0.00108403, Final residual = 7.31163e-11, No Iterations 8
ExecutionTime = 0.77 s  ClockTime = 1 s

Time = 8

DILUPBiCGStab:  Solving for omega, Initial residual = 0.00067081, Final residual = 2.0908e-11, No Iterations 9
ExecutionTime = 0.83 s  ClockTime = 1 s

Time = 9

DILUPBiCGStab:  Solving for omega, Initial residual = 0.000387828, Final residual = 5.72975e-11, No Iterations 8
ExecutionTime = 0.87 s  ClockTime = 2 s

Time = 10

DILUPBiCGStab:  Solving for omega, Initial residual = 0.00024571, Final residual = 8.8678e-11, No Iterations 7
ExecutionTime = 0.91 s  ClockTime = 2 s

Time = 11

DILUPBiCGStab:  Solving for omega, Initial residual = 0.000159577, Final residual = 8.76075e-11, No Iterations 7
ExecutionTime = 0.96 s  ClockTime = 2 s

Time = 12

DILUPBiCGStab:  Solving for omega, Initial residual = 0.000112389, Final residual = 8.23499e-11, No Iterations 7
ExecutionTime = 1 s  ClockTime = 2 s

Time = 13

DILUPBiCGStab:  Solving for omega, Initial residual = 8.4311e-05, Final residual = 5.02946e-11, No Iterations 8
ExecutionTime = 1.13 s  ClockTime = 2 s

Time = 14

DILUPBiCGStab:  Solving for omega, Initial residual = 6.80011e-05, Final residual = 9.05934e-11, No Iterations 7
ExecutionTime = 1.18 s  ClockTime = 2 s

Time = 15

DILUPBiCGStab:  Solving for omega, Initial residual = 5.79509e-05, Final residual = 6.95316e-11, No Iterations 7
ExecutionTime = 1.22 s  ClockTime = 2 s

Time = 16

DILUPBiCGStab:  Solving for omega, Initial residual = 5.15912e-05, Final residual = 4.37798e-11, No Iterations 8
ExecutionTime = 1.26 s  ClockTime = 2 s

Time = 17

DILUPBiCGStab:  Solving for omega, Initial residual = 4.72528e-05, Final residual = 3.10945e-11, No Iterations 8
ExecutionTime = 1.3 s  ClockTime = 2 s

Time = 18

DILUPBiCGStab:  Solving for omega, Initial residual = 4.40976e-05, Final residual = 2.69407e-11, No Iterations 8
ExecutionTime = 1.33 s  ClockTime = 2 s

Time = 19

DILUPBiCGStab:  Solving for omega, Initial residual = 4.16305e-05, Final residual = 8.47849e-11, No Iterations 7
ExecutionTime = 1.37 s  ClockTime = 2 s

Time = 20

DILUPBiCGStab:  Solving for omega, Initial residual = 3.95929e-05, Final residual = 6.8191e-11, No Iterations 7
ExecutionTime = 1.41 s  ClockTime = 2 s

Time = 21

DILUPBiCGStab:  Solving for omega, Initial residual = 3.78201e-05, Final residual = 5.90118e-11, No Iterations 7
ExecutionTime = 1.44 s  ClockTime = 2 s

Time = 22

DILUPBiCGStab:  Solving for omega, Initial residual = 3.62367e-05, Final residual = 5.26932e-11, No Iterations 7
ExecutionTime = 1.48 s  ClockTime = 2 s

Time = 23

DILUPBiCGStab:  Solving for omega, Initial residual = 3.47791e-05, Final residual = 4.76729e-11, No Iterations 7
ExecutionTime = 1.51 s  ClockTime = 2 s

Time = 24

DILUPBiCGStab:  Solving for omega, Initial residual = 3.34323e-05, Final residual = 4.37367e-11, No Iterations 7
ExecutionTime = 1.55 s  ClockTime = 2 s

Time = 25

DILUPBiCGStab:  Solving for omega, Initial residual = 3.21638e-05, Final residual = 4.05731e-11, No Iterations 7
ExecutionTime = 1.58 s  ClockTime = 2 s

Time = 26

DILUPBiCGStab:  Solving for omega, Initial residual = 3.09748e-05, Final residual = 3.81137e-11, No Iterations 7
ExecutionTime = 1.61 s  ClockTime = 2 s

Time = 27

DILUPBiCGStab:  Solving for omega, Initial residual = 2.98456e-05, Final residual = 3.65746e-11, No Iterations 7
ExecutionTime = 1.65 s  ClockTime = 2 s

Time = 28

DILUPBiCGStab:  Solving for omega, Initial residual = 2.87795e-05, Final residual = 3.60963e-11, No Iterations 7
ExecutionTime = 1.69 s  ClockTime = 2 s

Time = 29

DILUPBiCGStab:  Solving for omega, Initial residual = 2.7763e-05, Final residual = 6.39732e-11, No Iterations 7
ExecutionTime = 1.73 s  ClockTime = 3 s

Time = 30

DILUPBiCGStab:  Solving for omega, Initial residual = 2.67986e-05, Final residual = 7.55166e-11, No Iterations 7
ExecutionTime = 1.77 s  ClockTime = 3 s

Time = 31

DILUPBiCGStab:  Solving for omega, Initial residual = 2.588e-05, Final residual = 4.76252e-11, No Iterations 7
ExecutionTime = 1.81 s  ClockTime = 3 s

Time = 32

DILUPBiCGStab:  Solving for omega, Initial residual = 2.5008e-05, Final residual = 4.62213e-11, No Iterations 7
ExecutionTime = 1.85 s  ClockTime = 3 s

Time = 33

DILUPBiCGStab:  Solving for omega, Initial residual = 2.41775e-05, Final residual = 5.77525e-11, No Iterations 7
ExecutionTime = 1.88 s  ClockTime = 3 s

Time = 34

DILUPBiCGStab:  Solving for omega, Initial residual = 2.33885e-05, Final residual = 5.5322e-11, No Iterations 7
ExecutionTime = 1.92 s  ClockTime = 3 s

Time = 35

DILUPBiCGStab:  Solving for omega, Initial residual = 2.26382e-05, Final residual = 5.16146e-11, No Iterations 7
ExecutionTime = 1.95 s  ClockTime = 3 s

Time = 36

DILUPBiCGStab:  Solving for omega, Initial residual = 2.19246e-05, Final residual = 4.80576e-11, No Iterations 7
ExecutionTime = 1.99 s  ClockTime = 3 s

Time = 37

DILUPBiCGStab:  Solving for omega, Initial residual = 2.1245e-05, Final residual = 4.48023e-11, No Iterations 7
ExecutionTime = 2.05 s  ClockTime = 3 s

Time = 38

DILUPBiCGStab:  Solving for omega, Initial residual = 2.05974e-05, Final residual = 4.43107e-11, No Iterations 7
ExecutionTime = 2.09 s  ClockTime = 3 s

Time = 39

DILUPBiCGStab:  Solving for omega, Initial residual = 1.99796e-05, Final residual = 4.2507e-11, No Iterations 7
ExecutionTime = 2.12 s  ClockTime = 3 s

Time = 40

DILUPBiCGStab:  Solving for omega, Initial residual = 1.93895e-05, Final residual = 4.0443e-11, No Iterations 7
ExecutionTime = 2.16 s  ClockTime = 3 s

Time = 41

DILUPBiCGStab:  Solving for omega, Initial residual = 1.88254e-05, Final residual = 3.77929e-11, No Iterations 7
ExecutionTime = 2.19 s  ClockTime = 3 s

Time = 42

DILUPBiCGStab:  Solving for omega, Initial residual = 1.82854e-05, Final residual = 9.96222e-11, No Iterations 6
ExecutionTime = 2.23 s  ClockTime = 3 s

Time = 43

DILUPBiCGStab:  Solving for omega, Initial residual = 1.77683e-05, Final residual = 9.40604e-11, No Iterations 6
ExecutionTime = 2.27 s  ClockTime = 3 s

Time = 44

DILUPBiCGStab:  Solving for omega, Initial residual = 1.72729e-05, Final residual = 8.83079e-11, No Iterations 6
ExecutionTime = 2.3 s  ClockTime = 3 s

Time = 45

DILUPBiCGStab:  Solving for omega, Initial residual = 1.67977e-05, Final residual = 8.25512e-11, No Iterations 6
ExecutionTime = 2.35 s  ClockTime = 3 s

Time = 46

DILUPBiCGStab:  Solving for omega, Initial residual = 1.63415e-05, Final residual = 7.635e-11, No Iterations 6
ExecutionTime = 2.39 s  ClockTime = 3 s

Time = 47

DILUPBiCGStab:  Solving for omega, Initial residual = 1.59033e-05, Final residual = 7.05309e-11, No Iterations 6
ExecutionTime = 2.42 s  ClockTime = 3 s

Time = 48

DILUPBiCGStab:  Solving for omega, Initial residual = 1.54822e-05, Final residual = 6.42182e-11, No Iterations 6
ExecutionTime = 2.46 s  ClockTime = 3 s

Time = 49

DILUPBiCGStab:  Solving for omega, Initial residual = 1.50772e-05, Final residual = 5.81123e-11, No Iterations 6
ExecutionTime = 2.49 s  ClockTime = 3 s

Time = 50

DILUPBiCGStab:  Solving for omega, Initial residual = 1.46875e-05, Final residual = 5.63248e-11, No Iterations 6
ExecutionTime = 2.52 s  ClockTime = 3 s

Time = 51

DILUPBiCGStab:  Solving for omega, Initial residual = 1.43122e-05, Final residual = 5.0669e-11, No Iterations 6
ExecutionTime = 2.57 s  ClockTime = 3 s

Time = 52

DILUPBiCGStab:  Solving for omega, Initial residual = 1.39505e-05, Final residual = 8.7248e-11, No Iterations 6
ExecutionTime = 2.61 s  ClockTime = 4 s

Time = 53

DILUPBiCGStab:  Solving for omega, Initial residual = 1.36017e-05, Final residual = 8.67913e-11, No Iterations 6
ExecutionTime = 2.65 s  ClockTime = 4 s

Time = 54

DILUPBiCGStab:  Solving for omega, Initial residual = 1.32654e-05, Final residual = 8.19294e-11, No Iterations 6
ExecutionTime = 2.69 s  ClockTime = 4 s

Time = 55

DILUPBiCGStab:  Solving for omega, Initial residual = 1.29408e-05, Final residual = 9.3681e-11, No Iterations 5
ExecutionTime = 2.73 s  ClockTime = 4 s

Time = 56

DILUPBiCGStab:  Solving for omega, Initial residual = 1.26276e-05, Final residual = 8.96257e-11, No Iterations 5
ExecutionTime = 2.76 s  ClockTime = 4 s

Time = 57

DILUPBiCGStab:  Solving for omega, Initial residual = 1.23252e-05, Final residual = 8.00184e-11, No Iterations 5
ExecutionTime = 2.79 s  ClockTime = 4 s

Time = 58

DILUPBiCGStab:  Solving for omega, Initial residual = 1.2033e-05, Final residual = 7.20882e-11, No Iterations 5
ExecutionTime = 2.82 s  ClockTime = 4 s

Time = 59

DILUPBiCGStab:  Solving for omega, Initial residual = 1.17505e-05, Final residual = 6.672e-11, No Iterations 5
ExecutionTime = 2.86 s  ClockTime = 4 s

Time = 60

DILUPBiCGStab:  Solving for omega, Initial residual = 1.14774e-05, Final residual = 6.41143e-11, No Iterations 5
ExecutionTime = 2.9 s  ClockTime = 4 s

Time = 61

DILUPBiCGStab:  Solving for omega, Initial residual = 1.1213e-05, Final residual = 6.47671e-11, No Iterations 5
ExecutionTime = 2.94 s  ClockTime = 4 s

Time = 62

DILUPBiCGStab:  Solving for omega, Initial residual = 1.0957e-05, Final residual = 6.71303e-11, No Iterations 5
ExecutionTime = 2.98 s  ClockTime = 4 s

Time = 63

DILUPBiCGStab:  Solving for omega, Initial residual = 1.07089e-05, Final residual = 6.70773e-11, No Iterations 5
ExecutionTime = 3.01 s  ClockTime = 4 s

Time = 64

DILUPBiCGStab:  Solving for omega, Initial residual = 1.04682e-05, Final residual = 6.67941e-11, No Iterations 5
ExecutionTime = 3.05 s  ClockTime = 4 s

Time = 65

DILUPBiCGStab:  Solving for omega, Initial residual = 1.02345e-05, Final residual = 8.89384e-11, No Iterations 6
ExecutionTime = 3.09 s  ClockTime = 4 s

Time = 66

DILUPBiCGStab:  Solving for omega, Initial residual = 1.00075e-05, Final residual = 2.43667e-11, No Iterations 6
ExecutionTime = 3.13 s  ClockTime = 4 s

Time = 67

DILUPBiCGStab:  Solving for omega, Initial residual = 9.78686e-06, Final residual = 2.25588e-11, No Iterations 6
ExecutionTime = 3.16 s  ClockTime = 4 s

Time = 68

DILUPBiCGStab:  Solving for omega, Initial residual = 9.57214e-06, Final residual = 2.15006e-11, No Iterations 6
ExecutionTime = 3.2 s  ClockTime = 4 s

Time = 69

DILUPBiCGStab:  Solving for omega, Initial residual = 9.36306e-06, Final residual = 2.10095e-11, No Iterations 6
ExecutionTime = 3.24 s  ClockTime = 4 s

Time = 70

DILUPBiCGStab:  Solving for omega, Initial residual = 9.15933e-06, Final residual = 9.3071e-11, No Iterations 5
ExecutionTime = 3.27 s  ClockTime = 4 s

Time = 71

DILUPBiCGStab:  Solving for omega, Initial residual = 8.96066e-06, Final residual = 7.86588e-11, No Iterations 5
ExecutionTime = 3.3 s  ClockTime = 4 s

Time = 72

DILUPBiCGStab:  Solving for omega, Initial residual = 8.76679e-06, Final residual = 7.66558e-11, No Iterations 5
ExecutionTime = 3.34 s  ClockTime = 4 s

Time = 73

DILUPBiCGStab:  Solving for omega, Initial residual = 8.57747e-06, Final residual = 7.41091e-11, No Iterations 5
ExecutionTime = 3.37 s  ClockTime = 4 s

Time = 74

DILUPBiCGStab:  Solving for omega, Initial residual = 8.39248e-06, Final residual = 7.18473e-11, No Iterations 5
ExecutionTime = 3.4 s  ClockTime = 4 s

Time = 75

DILUPBiCGStab:  Solving for omega, Initial residual = 8.21162e-06, Final residual = 6.95922e-11, No Iterations 5
ExecutionTime = 3.45 s  ClockTime = 4 s

Time = 76

DILUPBiCGStab:  Solving for omega, Initial residual = 8.03469e-06, Final residual = 6.76187e-11, No Iterations 5
ExecutionTime = 3.49 s  ClockTime = 5 s

Time = 77

DILUPBiCGStab:  Solving for omega, Initial residual = 7.86152e-06, Final residual = 6.56328e-11, No Iterations 5
ExecutionTime = 3.53 s  ClockTime = 5 s

Time = 78

DILUPBiCGStab:  Solving for omega, Initial residual = 7.69194e-06, Final residual = 6.38462e-11, No Iterations 5
ExecutionTime = 3.56 s  ClockTime = 5 s

Time = 79

DILUPBiCGStab:  Solving for omega, Initial residual = 7.5258e-06, Final residual = 6.21346e-11, No Iterations 5
ExecutionTime = 3.59 s  ClockTime = 5 s

Time = 80

DILUPBiCGStab:  Solving for omega, Initial residual = 7.36296e-06, Final residual = 6.05258e-11, No Iterations 5
ExecutionTime = 3.63 s  ClockTime = 5 s

Time = 81

DILUPBiCGStab:  Solving for omega, Initial residual = 7.20328e-06, Final residual = 5.9113e-11, No Iterations 5
ExecutionTime = 3.66 s  ClockTime = 5 s

Time = 82

DILUPBiCGStab:  Solving for omega, Initial residual = 7.04665e-06, Final residual = 5.78291e-11, No Iterations 5
ExecutionTime = 3.69 s  ClockTime = 5 s

Time = 83

DILUPBiCGStab:  Solving for omega, Initial residual = 6.89295e-06, Final residual = 5.68157e-11, No Iterations 5
ExecutionTime = 3.73 s  ClockTime = 5 s

Time = 84

DILUPBiCGStab:  Solving for omega, Initial residual = 6.74208e-06, Final residual = 5.95508e-11, No Iterations 5
ExecutionTime = 3.76 s  ClockTime = 5 s

Time = 85

DILUPBiCGStab:  Solving for omega, Initial residual = 6.59395e-06, Final residual = 6.82756e-11, No Iterations 5
ExecutionTime = 3.8 s  ClockTime = 5 s

Time = 86

DILUPBiCGStab:  Solving for omega, Initial residual = 6.44847e-06, Final residual = 6.68404e-11, No Iterations 5
ExecutionTime = 3.84 s  ClockTime = 5 s

Time = 87

DILUPBiCGStab:  Solving for omega, Initial residual = 6.30556e-06, Final residual = 5.58385e-11, No Iterations 5
ExecutionTime = 3.88 s  ClockTime = 5 s

Time = 88

DILUPBiCGStab:  Solving for omega, Initial residual = 6.16514e-06, Final residual = 9.70315e-11, No Iterations 5
ExecutionTime = 3.91 s  ClockTime = 5 s

Time = 89

DILUPBiCGStab:  Solving for omega, Initial residual = 6.02716e-06, Final residual = 9.28152e-11, No Iterations 5
ExecutionTime = 3.94 s  ClockTime = 5 s

Time = 90

DILUPBiCGStab:  Solving for omega, Initial residual = 5.89155e-06, Final residual = 9.99713e-11, No Iterations 5
ExecutionTime = 3.98 s  ClockTime = 5 s

Time = 91

DILUPBiCGStab:  Solving for omega, Initial residual = 5.75825e-06, Final residual = 4.63235e-11, No Iterations 5
ExecutionTime = 4.01 s  ClockTime = 5 s

Time = 92

DILUPBiCGStab:  Solving for omega, Initial residual = 5.62722e-06, Final residual = 9.93182e-11, No Iterations 5
ExecutionTime = 4.05 s  ClockTime = 5 s

Time = 93

DILUPBiCGStab:  Solving for omega, Initial residual = 5.49841e-06, Final residual = 9.9427e-11, No Iterations 5
ExecutionTime = 4.08 s  ClockTime = 5 s

Time = 94

DILUPBiCGStab:  Solving for omega, Initial residual = 5.37179e-06, Final residual = 9.6324e-11, No Iterations 5
ExecutionTime = 4.12 s  ClockTime = 5 s

Time = 95

DILUPBiCGStab:  Solving for omega, Initial residual = 5.24732e-06, Final residual = 9.30147e-11, No Iterations 5
ExecutionTime = 4.15 s  ClockTime = 5 s

Time = 96

DILUPBiCGStab:  Solving for omega, Initial residual = 5.12496e-06, Final residual = 8.95947e-11, No Iterations 5
ExecutionTime = 4.18 s  ClockTime = 5 s

Time = 97

DILUPBiCGStab:  Solving for omega, Initial residual = 5.00468e-06, Final residual = 8.63356e-11, No Iterations 5
ExecutionTime = 4.21 s  ClockTime = 5 s

Time = 98

DILUPBiCGStab:  Solving for omega, Initial residual = 4.88646e-06, Final residual = 8.32777e-11, No Iterations 5
ExecutionTime = 4.24 s  ClockTime = 5 s

Time = 99

DILUPBiCGStab:  Solving for omega, Initial residual = 4.77026e-06, Final residual = 8.04608e-11, No Iterations 5
ExecutionTime = 4.29 s  ClockTime = 5 s

Time = 100

DILUPBiCGStab:  Solving for omega, Initial residual = 4.65607e-06, Final residual = 7.79541e-11, No Iterations 5
ExecutionTime = 4.32 s  ClockTime = 5 s

Time = 101

DILUPBiCGStab:  Solving for omega, Initial residual = 4.54386e-06, Final residual = 7.56083e-11, No Iterations 5
ExecutionTime = 4.36 s  ClockTime = 6 s

Time = 102

DILUPBiCGStab:  Solving for omega, Initial residual = 4.43361e-06, Final residual = 9.88264e-11, No Iterations 4
ExecutionTime = 4.4 s  ClockTime = 6 s

Time = 103

DILUPBiCGStab:  Solving for omega, Initial residual = 4.32532e-06, Final residual = 9.68632e-11, No Iterations 4
ExecutionTime = 4.44 s  ClockTime = 6 s

Time = 104

DILUPBiCGStab:  Solving for omega, Initial residual = 4.21897e-06, Final residual = 9.48003e-11, No Iterations 4
ExecutionTime = 4.48 s  ClockTime = 6 s

Time = 105

DILUPBiCGStab:  Solving for omega, Initial residual = 4.11458e-06, Final residual = 9.27547e-11, No Iterations 4
ExecutionTime = 4.52 s  ClockTime = 6 s

Time = 106

DILUPBiCGStab:  Solving for omega, Initial residual = 4.01213e-06, Final residual = 9.07069e-11, No Iterations 4
ExecutionTime = 4.57 s  ClockTime = 6 s

Time = 107

DILUPBiCGStab:  Solving for omega, Initial residual = 3.91162e-06, Final residual = 8.86759e-11, No Iterations 4
ExecutionTime = 4.6 s  ClockTime = 6 s

Time = 108

DILUPBiCGStab:  Solving for omega, Initial residual = 3.81305e-06, Final residual = 8.66489e-11, No Iterations 4
ExecutionTime = 4.63 s  ClockTime = 6 s

Time = 109

DILUPBiCGStab:  Solving for omega, Initial residual = 3.71642e-06, Final residual = 8.46191e-11, No Iterations 4
ExecutionTime = 4.67 s  ClockTime = 6 s

Time = 110

DILUPBiCGStab:  Solving for omega, Initial residual = 3.62172e-06, Final residual = 8.25948e-11, No Iterations 4
ExecutionTime = 4.71 s  ClockTime = 6 s

Time = 111

DILUPBiCGStab:  Solving for omega, Initial residual = 3.52895e-06, Final residual = 8.05759e-11, No Iterations 4
ExecutionTime = 4.75 s  ClockTime = 6 s

Time = 112

DILUPBiCGStab:  Solving for omega, Initial residual = 3.43809e-06, Final residual = 7.85692e-11, No Iterations 4
ExecutionTime = 4.78 s  ClockTime = 6 s

Time = 113

DILUPBiCGStab:  Solving for omega, Initial residual = 3.34913e-06, Final residual = 7.65826e-11, No Iterations 4
ExecutionTime = 4.82 s  ClockTime = 6 s

Time = 114

DILUPBiCGStab:  Solving for omega, Initial residual = 3.26207e-06, Final residual = 7.46239e-11, No Iterations 4
ExecutionTime = 4.87 s  ClockTime = 6 s

Time = 115

DILUPBiCGStab:  Solving for omega, Initial residual = 3.17689e-06, Final residual = 7.26989e-11, No Iterations 4
ExecutionTime = 4.92 s  ClockTime = 6 s

Time = 116

DILUPBiCGStab:  Solving for omega, Initial residual = 3.09357e-06, Final residual = 7.0801e-11, No Iterations 4
ExecutionTime = 4.97 s  ClockTime = 6 s

Time = 117

DILUPBiCGStab:  Solving for omega, Initial residual = 3.0121e-06, Final residual = 6.89197e-11, No Iterations 4
ExecutionTime = 5.01 s  ClockTime = 6 s

Time = 118

DILUPBiCGStab:  Solving for omega, Initial residual = 2.93246e-06, Final residual = 6.7058e-11, No Iterations 4
ExecutionTime = 5.05 s  ClockTime = 6 s

Time = 119

DILUPBiCGStab:  Solving for omega, Initial residual = 2.85463e-06, Final residual = 6.52144e-11, No Iterations 4
ExecutionTime = 5.08 s  ClockTime = 6 s

Time = 120

DILUPBiCGStab:  Solving for omega, Initial residual = 2.77859e-06, Final residual = 6.33942e-11, No Iterations 4
ExecutionTime = 5.12 s  ClockTime = 6 s

Time = 121

DILUPBiCGStab:  Solving for omega, Initial residual = 2.70431e-06, Final residual = 6.16112e-11, No Iterations 4
ExecutionTime = 5.15 s  ClockTime = 6 s

Time = 122

DILUPBiCGStab:  Solving for omega, Initial residual = 2.63178e-06, Final residual = 5.98577e-11, No Iterations 4
ExecutionTime = 5.2 s  ClockTime = 7 s

Time = 123

DILUPBiCGStab:  Solving for omega, Initial residual = 2.56096e-06, Final residual = 5.81184e-11, No Iterations 4
ExecutionTime = 5.24 s  ClockTime = 7 s

Time = 124

DILUPBiCGStab:  Solving for omega, Initial residual = 2.49184e-06, Final residual = 5.6363e-11, No Iterations 4
ExecutionTime = 5.28 s  ClockTime = 7 s

Time = 125

DILUPBiCGStab:  Solving for omega, Initial residual = 2.42438e-06, Final residual = 5.45897e-11, No Iterations 4
ExecutionTime = 5.32 s  ClockTime = 7 s

Time = 126

DILUPBiCGStab:  Solving for omega, Initial residual = 2.35856e-06, Final residual = 5.28074e-11, No Iterations 4
ExecutionTime = 5.36 s  ClockTime = 7 s

Time = 127

DILUPBiCGStab:  Solving for omega, Initial residual = 2.29435e-06, Final residual = 9.96415e-11, No Iterations 4
ExecutionTime = 5.44 s  ClockTime = 7 s

Time = 128

DILUPBiCGStab:  Solving for omega, Initial residual = 2.23172e-06, Final residual = 8.97343e-11, No Iterations 4
ExecutionTime = 5.47 s  ClockTime = 7 s

Time = 129

DILUPBiCGStab:  Solving for omega, Initial residual = 2.17065e-06, Final residual = 8.64577e-11, No Iterations 4
ExecutionTime = 5.51 s  ClockTime = 7 s

Time = 130

DILUPBiCGStab:  Solving for omega, Initial residual = 2.11109e-06, Final residual = 8.37814e-11, No Iterations 4
ExecutionTime = 5.55 s  ClockTime = 7 s

Time = 131

DILUPBiCGStab:  Solving for omega, Initial residual = 2.05304e-06, Final residual = 8.11541e-11, No Iterations 4
ExecutionTime = 5.58 s  ClockTime = 7 s

Time = 132

DILUPBiCGStab:  Solving for omega, Initial residual = 1.99645e-06, Final residual = 7.85404e-11, No Iterations 4
ExecutionTime = 5.61 s  ClockTime = 7 s

Time = 133

DILUPBiCGStab:  Solving for omega, Initial residual = 1.94129e-06, Final residual = 7.59418e-11, No Iterations 4
ExecutionTime = 5.65 s  ClockTime = 7 s

Time = 134

DILUPBiCGStab:  Solving for omega, Initial residual = 1.88754e-06, Final residual = 7.33611e-11, No Iterations 4
ExecutionTime = 5.68 s  ClockTime = 7 s

Time = 135

DILUPBiCGStab:  Solving for omega, Initial residual = 1.83517e-06, Final residual = 7.07908e-11, No Iterations 4
ExecutionTime = 5.72 s  ClockTime = 7 s

Time = 136

DILUPBiCGStab:  Solving for omega, Initial residual = 1.78415e-06, Final residual = 6.82687e-11, No Iterations 4
ExecutionTime = 5.75 s  ClockTime = 7 s

Time = 137

DILUPBiCGStab:  Solving for omega, Initial residual = 1.73444e-06, Final residual = 6.57715e-11, No Iterations 4
ExecutionTime = 5.79 s  ClockTime = 7 s

Time = 138

DILUPBiCGStab:  Solving for omega, Initial residual = 1.68602e-06, Final residual = 6.33074e-11, No Iterations 4
ExecutionTime = 5.82 s  ClockTime = 7 s

Time = 139

DILUPBiCGStab:  Solving for omega, Initial residual = 1.63887e-06, Final residual = 6.08724e-11, No Iterations 4
ExecutionTime = 5.85 s  ClockTime = 7 s

Time = 140

DILUPBiCGStab:  Solving for omega, Initial residual = 1.59294e-06, Final residual = 5.84928e-11, No Iterations 4
ExecutionTime = 5.88 s  ClockTime = 7 s

Time = 141

DILUPBiCGStab:  Solving for omega, Initial residual = 1.54822e-06, Final residual = 5.61716e-11, No Iterations 4
ExecutionTime = 5.91 s  ClockTime = 7 s

Time = 142

DILUPBiCGStab:  Solving for omega, Initial residual = 1.50467e-06, Final residual = 5.39287e-11, No Iterations 4
ExecutionTime = 5.95 s  ClockTime = 7 s

Time = 143

DILUPBiCGStab:  Solving for omega, Initial residual = 1.46227e-06, Final residual = 5.17565e-11, No Iterations 4
ExecutionTime = 5.97 s  ClockTime = 7 s

Time = 144

DILUPBiCGStab:  Solving for omega, Initial residual = 1.42099e-06, Final residual = 4.96603e-11, No Iterations 4
ExecutionTime = 6.01 s  ClockTime = 7 s

Time = 145

DILUPBiCGStab:  Solving for omega, Initial residual = 1.38081e-06, Final residual = 4.76483e-11, No Iterations 4
ExecutionTime = 6.05 s  ClockTime = 7 s

Time = 146

DILUPBiCGStab:  Solving for omega, Initial residual = 1.34169e-06, Final residual = 4.57443e-11, No Iterations 4
ExecutionTime = 6.08 s  ClockTime = 7 s

Time = 147

DILUPBiCGStab:  Solving for omega, Initial residual = 1.30362e-06, Final residual = 4.39471e-11, No Iterations 4
ExecutionTime = 6.12 s  ClockTime = 8 s

Time = 148

DILUPBiCGStab:  Solving for omega, Initial residual = 1.26656e-06, Final residual = 4.22539e-11, No Iterations 4
ExecutionTime = 6.16 s  ClockTime = 8 s

Time = 149

DILUPBiCGStab:  Solving for omega, Initial residual = 1.2305e-06, Final residual = 4.06488e-11, No Iterations 4
ExecutionTime = 6.19 s  ClockTime = 8 s

Time = 150

DILUPBiCGStab:  Solving for omega, Initial residual = 1.1954e-06, Final residual = 3.90994e-11, No Iterations 4
ExecutionTime = 6.23 s  ClockTime = 8 s

Time = 151

DILUPBiCGStab:  Solving for omega, Initial residual = 1.16125e-06, Final residual = 9.76952e-11, No Iterations 3
ExecutionTime = 6.26 s  ClockTime = 8 s

Time = 152

DILUPBiCGStab:  Solving for omega, Initial residual = 1.12802e-06, Final residual = 9.73046e-11, No Iterations 3
ExecutionTime = 6.3 s  ClockTime = 8 s

Time = 153

DILUPBiCGStab:  Solving for omega, Initial residual = 1.09569e-06, Final residual = 9.30171e-11, No Iterations 3
ExecutionTime = 6.35 s  ClockTime = 8 s

Time = 154

DILUPBiCGStab:  Solving for omega, Initial residual = 1.06424e-06, Final residual = 8.88367e-11, No Iterations 3
ExecutionTime = 6.4 s  ClockTime = 8 s

Time = 155

DILUPBiCGStab:  Solving for omega, Initial residual = 1.03364e-06, Final residual = 8.48345e-11, No Iterations 3
ExecutionTime = 6.44 s  ClockTime = 8 s

Time = 156

DILUPBiCGStab:  Solving for omega, Initial residual = 1.00387e-06, Final residual = 8.10149e-11, No Iterations 3
ExecutionTime = 6.48 s  ClockTime = 8 s

Time = 157

DILUPBiCGStab:  Solving for omega, Initial residual = 9.74916e-07, Final residual = 7.73671e-11, No Iterations 3
ExecutionTime = 6.52 s  ClockTime = 8 s

Time = 158

DILUPBiCGStab:  Solving for omega, Initial residual = 9.46751e-07, Final residual = 7.38778e-11, No Iterations 3
ExecutionTime = 6.56 s  ClockTime = 8 s

Time = 159

DILUPBiCGStab:  Solving for omega, Initial residual = 9.19357e-07, Final residual = 7.05447e-11, No Iterations 3
ExecutionTime = 6.6 s  ClockTime = 8 s

Time = 160

DILUPBiCGStab:  Solving for omega, Initial residual = 8.92714e-07, Final residual = 6.73669e-11, No Iterations 3
ExecutionTime = 6.64 s  ClockTime = 8 s

Time = 161

DILUPBiCGStab:  Solving for omega, Initial residual = 8.66804e-07, Final residual = 6.43274e-11, No Iterations 3
ExecutionTime = 6.68 s  ClockTime = 8 s

Time = 162

DILUPBiCGStab:  Solving for omega, Initial residual = 8.41608e-07, Final residual = 6.14328e-11, No Iterations 3
ExecutionTime = 6.71 s  ClockTime = 8 s

Time = 163

DILUPBiCGStab:  Solving for omega, Initial residual = 8.17108e-07, Final residual = 5.86698e-11, No Iterations 3
ExecutionTime = 6.75 s  ClockTime = 8 s

Time = 164

DILUPBiCGStab:  Solving for omega, Initial residual = 7.93286e-07, Final residual = 5.6035e-11, No Iterations 3
ExecutionTime = 6.78 s  ClockTime = 8 s

Time = 165

DILUPBiCGStab:  Solving for omega, Initial residual = 7.70125e-07, Final residual = 5.35216e-11, No Iterations 3
ExecutionTime = 6.81 s  ClockTime = 8 s

Time = 166

DILUPBiCGStab:  Solving for omega, Initial residual = 7.47607e-07, Final residual = 5.11261e-11, No Iterations 3
ExecutionTime = 6.84 s  ClockTime = 8 s

Time = 167

DILUPBiCGStab:  Solving for omega, Initial residual = 7.25717e-07, Final residual = 4.88501e-11, No Iterations 3
ExecutionTime = 6.88 s  ClockTime = 8 s

Time = 168

DILUPBiCGStab:  Solving for omega, Initial residual = 7.04437e-07, Final residual = 4.66809e-11, No Iterations 3
ExecutionTime = 6.91 s  ClockTime = 8 s

Time = 169

DILUPBiCGStab:  Solving for omega, Initial residual = 6.83752e-07, Final residual = 4.46136e-11, No Iterations 3
ExecutionTime = 6.94 s  ClockTime = 8 s

Time = 170

DILUPBiCGStab:  Solving for omega, Initial residual = 6.63647e-07, Final residual = 4.26429e-11, No Iterations 3
ExecutionTime = 6.98 s  ClockTime = 9 s

Time = 171

DILUPBiCGStab:  Solving for omega, Initial residual = 6.44106e-07, Final residual = 4.07665e-11, No Iterations 3
ExecutionTime = 7.01 s  ClockTime = 9 s

Time = 172

DILUPBiCGStab:  Solving for omega, Initial residual = 6.25115e-07, Final residual = 3.89818e-11, No Iterations 3
ExecutionTime = 7.05 s  ClockTime = 9 s

Time = 173

DILUPBiCGStab:  Solving for omega, Initial residual = 6.0666e-07, Final residual = 3.72814e-11, No Iterations 3
ExecutionTime = 7.08 s  ClockTime = 9 s

Time = 174

DILUPBiCGStab:  Solving for omega, Initial residual = 5.88726e-07, Final residual = 3.56604e-11, No Iterations 3
ExecutionTime = 7.11 s  ClockTime = 9 s

Time = 175

DILUPBiCGStab:  Solving for omega, Initial residual = 5.71299e-07, Final residual = 3.4117e-11, No Iterations 3
ExecutionTime = 7.14 s  ClockTime = 9 s

Time = 176

DILUPBiCGStab:  Solving for omega, Initial residual = 5.54367e-07, Final residual = 9.78759e-11, No Iterations 3
ExecutionTime = 7.17 s  ClockTime = 9 s

Time = 177

DILUPBiCGStab:  Solving for omega, Initial residual = 5.37917e-07, Final residual = 9.77278e-11, No Iterations 3
ExecutionTime = 7.21 s  ClockTime = 9 s

Time = 178

DILUPBiCGStab:  Solving for omega, Initial residual = 5.21934e-07, Final residual = 6.49099e-11, No Iterations 3
ExecutionTime = 7.25 s  ClockTime = 9 s

Time = 179

DILUPBiCGStab:  Solving for omega, Initial residual = 5.06409e-07, Final residual = 8.75521e-11, No Iterations 3
ExecutionTime = 7.28 s  ClockTime = 9 s

Time = 180

DILUPBiCGStab:  Solving for omega, Initial residual = 4.91326e-07, Final residual = 5.78951e-11, No Iterations 3
ExecutionTime = 7.32 s  ClockTime = 9 s

Time = 181

DILUPBiCGStab:  Solving for omega, Initial residual = 4.76677e-07, Final residual = 8.27199e-11, No Iterations 3
ExecutionTime = 7.37 s  ClockTime = 9 s

Time = 182

DILUPBiCGStab:  Solving for omega, Initial residual = 4.62447e-07, Final residual = 5.30554e-11, No Iterations 3
ExecutionTime = 7.41 s  ClockTime = 9 s

Time = 183

DILUPBiCGStab:  Solving for omega, Initial residual = 4.48627e-07, Final residual = 7.58067e-11, No Iterations 3
ExecutionTime = 7.44 s  ClockTime = 9 s

Time = 184

DILUPBiCGStab:  Solving for omega, Initial residual = 4.35203e-07, Final residual = 4.83675e-11, No Iterations 3
ExecutionTime = 7.47 s  ClockTime = 9 s

Time = 185

DILUPBiCGStab:  Solving for omega, Initial residual = 4.22168e-07, Final residual = 7.02101e-11, No Iterations 3
ExecutionTime = 7.5 s  ClockTime = 9 s

Time = 186

DILUPBiCGStab:  Solving for omega, Initial residual = 4.09508e-07, Final residual = 4.42451e-11, No Iterations 3
ExecutionTime = 7.54 s  ClockTime = 9 s

Time = 187

DILUPBiCGStab:  Solving for omega, Initial residual = 3.97216e-07, Final residual = 6.48198e-11, No Iterations 3
ExecutionTime = 7.57 s  ClockTime = 9 s

Time = 188

DILUPBiCGStab:  Solving for omega, Initial residual = 3.85279e-07, Final residual = 4.04687e-11, No Iterations 3
ExecutionTime = 7.61 s  ClockTime = 9 s

Time = 189

DILUPBiCGStab:  Solving for omega, Initial residual = 3.7369e-07, Final residual = 5.99557e-11, No Iterations 3
ExecutionTime = 7.64 s  ClockTime = 9 s

Time = 190

DILUPBiCGStab:  Solving for omega, Initial residual = 3.62437e-07, Final residual = 3.70608e-11, No Iterations 3
ExecutionTime = 7.67 s  ClockTime = 9 s

Time = 191

DILUPBiCGStab:  Solving for omega, Initial residual = 3.51513e-07, Final residual = 5.5464e-11, No Iterations 3
ExecutionTime = 7.7 s  ClockTime = 9 s

Time = 192

DILUPBiCGStab:  Solving for omega, Initial residual = 3.40906e-07, Final residual = 3.39623e-11, No Iterations 3
ExecutionTime = 7.73 s  ClockTime = 9 s

Time = 193

DILUPBiCGStab:  Solving for omega, Initial residual = 3.30611e-07, Final residual = 5.13447e-11, No Iterations 3
ExecutionTime = 7.76 s  ClockTime = 9 s

Time = 194

DILUPBiCGStab:  Solving for omega, Initial residual = 3.20616e-07, Final residual = 3.11494e-11, No Iterations 3
ExecutionTime = 7.79 s  ClockTime = 9 s

Time = 195

DILUPBiCGStab:  Solving for omega, Initial residual = 3.10915e-07, Final residual = 4.75555e-11, No Iterations 3
ExecutionTime = 7.82 s  ClockTime = 9 s

Time = 196

DILUPBiCGStab:  Solving for omega, Initial residual = 3.01499e-07, Final residual = 2.85938e-11, No Iterations 3
ExecutionTime = 7.86 s  ClockTime = 9 s

Time = 197

DILUPBiCGStab:  Solving for omega, Initial residual = 2.92359e-07, Final residual = 4.40816e-11, No Iterations 3
ExecutionTime = 7.89 s  ClockTime = 10 s

Time = 198

DILUPBiCGStab:  Solving for omega, Initial residual = 2.83489e-07, Final residual = 9.96904e-11, No Iterations 2
ExecutionTime = 7.93 s  ClockTime = 10 s

Time = 199

DILUPBiCGStab:  Solving for omega, Initial residual = 2.74885e-07, Final residual = 2.49303e-11, No Iterations 3
ExecutionTime = 7.96 s  ClockTime = 10 s

Time = 200

DILUPBiCGStab:  Solving for omega, Initial residual = 2.66531e-07, Final residual = 4.18656e-11, No Iterations 3
ExecutionTime = 7.99 s  ClockTime = 10 s

Time = 201

DILUPBiCGStab:  Solving for omega, Initial residual = 2.58423e-07, Final residual = 8.60626e-11, No Iterations 2
ExecutionTime = 8.02 s  ClockTime = 10 s

Time = 202

DILUPBiCGStab:  Solving for omega, Initial residual = 2.50559e-07, Final residual = 9.12652e-11, No Iterations 2
ExecutionTime = 8.05 s  ClockTime = 10 s

Time = 203

DILUPBiCGStab:  Solving for omega, Initial residual = 2.4293e-07, Final residual = 8.75434e-11, No Iterations 2
ExecutionTime = 8.08 s  ClockTime = 10 s

Time = 204

DILUPBiCGStab:  Solving for omega, Initial residual = 2.35526e-07, Final residual = 8.42118e-11, No Iterations 2
ExecutionTime = 8.14 s  ClockTime = 10 s

Time = 205

DILUPBiCGStab:  Solving for omega, Initial residual = 2.28343e-07, Final residual = 8.08923e-11, No Iterations 2
ExecutionTime = 8.17 s  ClockTime = 10 s

Time = 206

DILUPBiCGStab:  Solving for omega, Initial residual = 2.21373e-07, Final residual = 7.76973e-11, No Iterations 2
ExecutionTime = 8.2 s  ClockTime = 10 s

Time = 207

DILUPBiCGStab:  Solving for omega, Initial residual = 2.1461e-07, Final residual = 7.46329e-11, No Iterations 2
ExecutionTime = 8.23 s  ClockTime = 10 s

Time = 208

DILUPBiCGStab:  Solving for omega, Initial residual = 2.0805e-07, Final residual = 7.17002e-11, No Iterations 2
ExecutionTime = 8.26 s  ClockTime = 10 s

Time = 209

DILUPBiCGStab:  Solving for omega, Initial residual = 2.01685e-07, Final residual = 6.88949e-11, No Iterations 2
ExecutionTime = 8.29 s  ClockTime = 10 s

Time = 210

DILUPBiCGStab:  Solving for omega, Initial residual = 1.9551e-07, Final residual = 6.62117e-11, No Iterations 2
ExecutionTime = 8.32 s  ClockTime = 10 s

Time = 211

DILUPBiCGStab:  Solving for omega, Initial residual = 1.8952e-07, Final residual = 6.36451e-11, No Iterations 2
ExecutionTime = 8.35 s  ClockTime = 10 s

Time = 212

DILUPBiCGStab:  Solving for omega, Initial residual = 1.8371e-07, Final residual = 6.11897e-11, No Iterations 2
ExecutionTime = 8.38 s  ClockTime = 10 s

Time = 213

DILUPBiCGStab:  Solving for omega, Initial residual = 1.78074e-07, Final residual = 5.88404e-11, No Iterations 2
ExecutionTime = 8.42 s  ClockTime = 10 s

Time = 214

DILUPBiCGStab:  Solving for omega, Initial residual = 1.72607e-07, Final residual = 5.65924e-11, No Iterations 2
ExecutionTime = 8.46 s  ClockTime = 10 s

Time = 215

DILUPBiCGStab:  Solving for omega, Initial residual = 1.67304e-07, Final residual = 5.4441e-11, No Iterations 2
ExecutionTime = 8.49 s  ClockTime = 10 s

Time = 216

DILUPBiCGStab:  Solving for omega, Initial residual = 1.62161e-07, Final residual = 5.23817e-11, No Iterations 2
ExecutionTime = 8.61 s  ClockTime = 10 s

Time = 217

DILUPBiCGStab:  Solving for omega, Initial residual = 1.57174e-07, Final residual = 5.04099e-11, No Iterations 2
ExecutionTime = 8.65 s  ClockTime = 10 s

Time = 218

DILUPBiCGStab:  Solving for omega, Initial residual = 1.52336e-07, Final residual = 4.85215e-11, No Iterations 2
ExecutionTime = 8.68 s  ClockTime = 10 s

Time = 219

DILUPBiCGStab:  Solving for omega, Initial residual = 1.47645e-07, Final residual = 4.67128e-11, No Iterations 2
ExecutionTime = 8.72 s  ClockTime = 10 s

Time = 220

DILUPBiCGStab:  Solving for omega, Initial residual = 1.43096e-07, Final residual = 4.498e-11, No Iterations 2
ExecutionTime = 8.75 s  ClockTime = 10 s

Time = 221

DILUPBiCGStab:  Solving for omega, Initial residual = 1.38684e-07, Final residual = 4.33195e-11, No Iterations 2
ExecutionTime = 8.79 s  ClockTime = 11 s

Time = 222

DILUPBiCGStab:  Solving for omega, Initial residual = 1.34406e-07, Final residual = 4.17281e-11, No Iterations 2
ExecutionTime = 8.84 s  ClockTime = 11 s

Time = 223

DILUPBiCGStab:  Solving for omega, Initial residual = 1.30258e-07, Final residual = 4.02026e-11, No Iterations 2
ExecutionTime = 8.87 s  ClockTime = 11 s

Time = 224

DILUPBiCGStab:  Solving for omega, Initial residual = 1.26235e-07, Final residual = 3.874e-11, No Iterations 2
ExecutionTime = 8.9 s  ClockTime = 11 s

Time = 225

DILUPBiCGStab:  Solving for omega, Initial residual = 1.22335e-07, Final residual = 3.73374e-11, No Iterations 2
ExecutionTime = 8.93 s  ClockTime = 11 s

Time = 226

DILUPBiCGStab:  Solving for omega, Initial residual = 1.18553e-07, Final residual = 3.59919e-11, No Iterations 2
ExecutionTime = 8.96 s  ClockTime = 11 s

Time = 227

DILUPBiCGStab:  Solving for omega, Initial residual = 1.14887e-07, Final residual = 3.4701e-11, No Iterations 2
ExecutionTime = 9 s  ClockTime = 11 s

Time = 228

DILUPBiCGStab:  Solving for omega, Initial residual = 1.11332e-07, Final residual = 3.34622e-11, No Iterations 2
ExecutionTime = 9.04 s  ClockTime = 11 s

Time = 229

DILUPBiCGStab:  Solving for omega, Initial residual = 1.07885e-07, Final residual = 3.2273e-11, No Iterations 2
ExecutionTime = 9.07 s  ClockTime = 11 s

Time = 230

DILUPBiCGStab:  Solving for omega, Initial residual = 1.04544e-07, Final residual = 3.11312e-11, No Iterations 2
ExecutionTime = 9.1 s  ClockTime = 11 s

Time = 231

DILUPBiCGStab:  Solving for omega, Initial residual = 1.01305e-07, Final residual = 3.00346e-11, No Iterations 2
ExecutionTime = 9.13 s  ClockTime = 11 s

Time = 232

DILUPBiCGStab:  Solving for omega, Initial residual = 9.81643e-08, Final residual = 2.89812e-11, No Iterations 2
ExecutionTime = 9.17 s  ClockTime = 11 s

Time = 233

DILUPBiCGStab:  Solving for omega, Initial residual = 9.512e-08, Final residual = 2.7969e-11, No Iterations 2
ExecutionTime = 9.2 s  ClockTime = 11 s

Time = 234

DILUPBiCGStab:  Solving for omega, Initial residual = 9.21689e-08, Final residual = 2.69962e-11, No Iterations 2
ExecutionTime = 9.24 s  ClockTime = 11 s

Time = 235

DILUPBiCGStab:  Solving for omega, Initial residual = 8.93082e-08, Final residual = 9.79333e-11, No Iterations 2
ExecutionTime = 9.28 s  ClockTime = 11 s

Time = 236

DILUPBiCGStab:  Solving for omega, Initial residual = 8.65367e-08, Final residual = 9.48843e-11, No Iterations 2
ExecutionTime = 9.31 s  ClockTime = 11 s

Time = 237

DILUPBiCGStab:  Solving for omega, Initial residual = 8.385e-08, Final residual = 9.19148e-11, No Iterations 2
ExecutionTime = 9.35 s  ClockTime = 11 s

Time = 238

DILUPBiCGStab:  Solving for omega, Initial residual = 8.12456e-08, Final residual = 8.899e-11, No Iterations 2
ExecutionTime = 9.38 s  ClockTime = 11 s

Time = 239

DILUPBiCGStab:  Solving for omega, Initial residual = 7.87211e-08, Final residual = 8.61491e-11, No Iterations 2
ExecutionTime = 9.42 s  ClockTime = 11 s

Time = 240

DILUPBiCGStab:  Solving for omega, Initial residual = 7.62741e-08, Final residual = 8.33942e-11, No Iterations 2
ExecutionTime = 9.46 s  ClockTime = 11 s

Time = 241

DILUPBiCGStab:  Solving for omega, Initial residual = 7.39023e-08, Final residual = 8.07247e-11, No Iterations 2
ExecutionTime = 9.49 s  ClockTime = 11 s

Time = 242

DILUPBiCGStab:  Solving for omega, Initial residual = 7.16034e-08, Final residual = 7.81422e-11, No Iterations 2
ExecutionTime = 9.53 s  ClockTime = 11 s

Time = 243

DILUPBiCGStab:  Solving for omega, Initial residual = 6.93752e-08, Final residual = 7.56425e-11, No Iterations 2
ExecutionTime = 9.56 s  ClockTime = 11 s

Time = 244

DILUPBiCGStab:  Solving for omega, Initial residual = 6.72155e-08, Final residual = 7.32251e-11, No Iterations 2
ExecutionTime = 9.59 s  ClockTime = 11 s

Time = 245

DILUPBiCGStab:  Solving for omega, Initial residual = 6.51225e-08, Final residual = 7.08863e-11, No Iterations 2
ExecutionTime = 9.62 s  ClockTime = 11 s

Time = 246

DILUPBiCGStab:  Solving for omega, Initial residual = 6.30939e-08, Final residual = 6.86245e-11, No Iterations 2
ExecutionTime = 9.66 s  ClockTime = 12 s

Time = 247

DILUPBiCGStab:  Solving for omega, Initial residual = 6.11279e-08, Final residual = 6.64366e-11, No Iterations 2
ExecutionTime = 9.7 s  ClockTime = 12 s

Time = 248

DILUPBiCGStab:  Solving for omega, Initial residual = 5.92226e-08, Final residual = 6.43205e-11, No Iterations 2
ExecutionTime = 9.73 s  ClockTime = 12 s

Time = 249

DILUPBiCGStab:  Solving for omega, Initial residual = 5.73761e-08, Final residual = 6.22738e-11, No Iterations 2
ExecutionTime = 9.76 s  ClockTime = 12 s

Time = 250

DILUPBiCGStab:  Solving for omega, Initial residual = 5.55866e-08, Final residual = 6.0294e-11, No Iterations 2
ExecutionTime = 9.8 s  ClockTime = 12 s

Time = 251

DILUPBiCGStab:  Solving for omega, Initial residual = 5.38525e-08, Final residual = 5.83791e-11, No Iterations 2
ExecutionTime = 9.83 s  ClockTime = 12 s

Time = 252

DILUPBiCGStab:  Solving for omega, Initial residual = 5.2172e-08, Final residual = 5.65267e-11, No Iterations 2
ExecutionTime = 9.86 s  ClockTime = 12 s

Time = 253

DILUPBiCGStab:  Solving for omega, Initial residual = 5.05435e-08, Final residual = 5.47349e-11, No Iterations 2
ExecutionTime = 9.89 s  ClockTime = 12 s

Time = 254

DILUPBiCGStab:  Solving for omega, Initial residual = 4.89654e-08, Final residual = 5.30013e-11, No Iterations 2
ExecutionTime = 9.93 s  ClockTime = 12 s

Time = 255

DILUPBiCGStab:  Solving for omega, Initial residual = 4.74362e-08, Final residual = 5.13241e-11, No Iterations 2
ExecutionTime = 9.96 s  ClockTime = 12 s

Time = 256

DILUPBiCGStab:  Solving for omega, Initial residual = 4.59544e-08, Final residual = 4.97013e-11, No Iterations 2
ExecutionTime = 9.99 s  ClockTime = 12 s

Time = 257

DILUPBiCGStab:  Solving for omega, Initial residual = 4.45186e-08, Final residual = 4.81311e-11, No Iterations 2
ExecutionTime = 10.03 s  ClockTime = 12 s

Time = 258

DILUPBiCGStab:  Solving for omega, Initial residual = 4.31272e-08, Final residual = 4.66117e-11, No Iterations 2
ExecutionTime = 10.07 s  ClockTime = 12 s

Time = 259

DILUPBiCGStab:  Solving for omega, Initial residual = 4.17791e-08, Final residual = 4.51414e-11, No Iterations 2
ExecutionTime = 10.11 s  ClockTime = 12 s

Time = 260

DILUPBiCGStab:  Solving for omega, Initial residual = 4.04728e-08, Final residual = 4.37186e-11, No Iterations 2
ExecutionTime = 10.14 s  ClockTime = 12 s

Time = 261

DILUPBiCGStab:  Solving for omega, Initial residual = 3.92071e-08, Final residual = 4.23415e-11, No Iterations 2
ExecutionTime = 10.17 s  ClockTime = 12 s

Time = 262

DILUPBiCGStab:  Solving for omega, Initial residual = 3.79807e-08, Final residual = 4.10087e-11, No Iterations 2
ExecutionTime = 10.2 s  ClockTime = 12 s

Time = 263

DILUPBiCGStab:  Solving for omega, Initial residual = 3.67924e-08, Final residual = 3.97187e-11, No Iterations 2
ExecutionTime = 10.23 s  ClockTime = 12 s

Time = 264

DILUPBiCGStab:  Solving for omega, Initial residual = 3.56411e-08, Final residual = 3.84701e-11, No Iterations 2
ExecutionTime = 10.26 s  ClockTime = 12 s

Time = 265

DILUPBiCGStab:  Solving for omega, Initial residual = 3.45256e-08, Final residual = 3.72613e-11, No Iterations 2
ExecutionTime = 10.3 s  ClockTime = 12 s

Time = 266

DILUPBiCGStab:  Solving for omega, Initial residual = 3.34448e-08, Final residual = 3.60913e-11, No Iterations 2
ExecutionTime = 10.33 s  ClockTime = 12 s

Time = 267

DILUPBiCGStab:  Solving for omega, Initial residual = 3.23976e-08, Final residual = 3.49585e-11, No Iterations 2
ExecutionTime = 10.37 s  ClockTime = 12 s

Time = 268

DILUPBiCGStab:  Solving for omega, Initial residual = 3.1383e-08, Final residual = 3.38619e-11, No Iterations 2
ExecutionTime = 10.4 s  ClockTime = 12 s

Time = 269

DILUPBiCGStab:  Solving for omega, Initial residual = 3.04001e-08, Final residual = 3.28002e-11, No Iterations 2
ExecutionTime = 10.43 s  ClockTime = 12 s

Time = 270

DILUPBiCGStab:  Solving for omega, Initial residual = 2.94478e-08, Final residual = 3.17723e-11, No Iterations 2
ExecutionTime = 10.46 s  ClockTime = 12 s

Time = 271

DILUPBiCGStab:  Solving for omega, Initial residual = 2.85251e-08, Final residual = 3.0777e-11, No Iterations 2
ExecutionTime = 10.5 s  ClockTime = 12 s

Time = 272

DILUPBiCGStab:  Solving for omega, Initial residual = 2.76313e-08, Final residual = 2.98134e-11, No Iterations 2
ExecutionTime = 10.53 s  ClockTime = 12 s

Time = 273

DILUPBiCGStab:  Solving for omega, Initial residual = 2.67653e-08, Final residual = 2.88802e-11, No Iterations 2
ExecutionTime = 10.57 s  ClockTime = 13 s

Time = 274

DILUPBiCGStab:  Solving for omega, Initial residual = 2.59263e-08, Final residual = 2.79767e-11, No Iterations 2
ExecutionTime = 10.6 s  ClockTime = 13 s

Time = 275

DILUPBiCGStab:  Solving for omega, Initial residual = 2.51135e-08, Final residual = 2.71017e-11, No Iterations 2
ExecutionTime = 10.63 s  ClockTime = 13 s

Time = 276

DILUPBiCGStab:  Solving for omega, Initial residual = 2.43261e-08, Final residual = 2.62544e-11, No Iterations 2
ExecutionTime = 10.67 s  ClockTime = 13 s

Time = 277

DILUPBiCGStab:  Solving for omega, Initial residual = 2.35632e-08, Final residual = 2.54338e-11, No Iterations 2
ExecutionTime = 10.7 s  ClockTime = 13 s

Time = 278

DILUPBiCGStab:  Solving for omega, Initial residual = 2.28242e-08, Final residual = 2.46392e-11, No Iterations 2
ExecutionTime = 10.74 s  ClockTime = 13 s

Time = 279

DILUPBiCGStab:  Solving for omega, Initial residual = 2.21083e-08, Final residual = 2.38696e-11, No Iterations 2
ExecutionTime = 10.77 s  ClockTime = 13 s

Time = 280

DILUPBiCGStab:  Solving for omega, Initial residual = 2.14148e-08, Final residual = 2.31243e-11, No Iterations 2
ExecutionTime = 10.81 s  ClockTime = 13 s

Time = 281

DILUPBiCGStab:  Solving for omega, Initial residual = 2.07429e-08, Final residual = 2.24025e-11, No Iterations 2
ExecutionTime = 10.85 s  ClockTime = 13 s

Time = 282

DILUPBiCGStab:  Solving for omega, Initial residual = 2.0092e-08, Final residual = 2.17033e-11, No Iterations 2
ExecutionTime = 10.94 s  ClockTime = 13 s

Time = 283

DILUPBiCGStab:  Solving for omega, Initial residual = 1.94615e-08, Final residual = 2.10262e-11, No Iterations 2
ExecutionTime = 10.97 s  ClockTime = 13 s

Time = 284

DILUPBiCGStab:  Solving for omega, Initial residual = 1.88508e-08, Final residual = 2.03703e-11, No Iterations 2
ExecutionTime = 11 s  ClockTime = 13 s

Time = 285

DILUPBiCGStab:  Solving for omega, Initial residual = 1.82591e-08, Final residual = 1.9735e-11, No Iterations 2
ExecutionTime = 11.03 s  ClockTime = 13 s

Time = 286

DILUPBiCGStab:  Solving for omega, Initial residual = 1.76859e-08, Final residual = 1.91197e-11, No Iterations 2
ExecutionTime = 11.06 s  ClockTime = 13 s

Time = 287

DILUPBiCGStab:  Solving for omega, Initial residual = 1.71307e-08, Final residual = 1.85237e-11, No Iterations 2
ExecutionTime = 11.09 s  ClockTime = 13 s

Time = 288

DILUPBiCGStab:  Solving for omega, Initial residual = 1.65929e-08, Final residual = 1.79463e-11, No Iterations 2
ExecutionTime = 11.12 s  ClockTime = 13 s

Time = 289

DILUPBiCGStab:  Solving for omega, Initial residual = 1.60719e-08, Final residual = 1.73871e-11, No Iterations 2
ExecutionTime = 11.15 s  ClockTime = 13 s

Time = 290

DILUPBiCGStab:  Solving for omega, Initial residual = 1.55672e-08, Final residual = 9.92318e-11, No Iterations 1
ExecutionTime = 11.19 s  ClockTime = 13 s

Time = 291

DILUPBiCGStab:  Solving for omega, Initial residual = 1.50812e-08, Final residual = 9.68191e-11, No Iterations 1
ExecutionTime = 11.22 s  ClockTime = 13 s

Time = 292

DILUPBiCGStab:  Solving for omega, Initial residual = 1.46104e-08, Final residual = 9.41928e-11, No Iterations 1
ExecutionTime = 11.25 s  ClockTime = 13 s

Time = 293

DILUPBiCGStab:  Solving for omega, Initial residual = 1.41543e-08, Final residual = 9.15136e-11, No Iterations 1
ExecutionTime = 11.28 s  ClockTime = 13 s

Time = 294

DILUPBiCGStab:  Solving for omega, Initial residual = 1.37124e-08, Final residual = 8.88459e-11, No Iterations 1
ExecutionTime = 11.31 s  ClockTime = 13 s

Time = 295

DILUPBiCGStab:  Solving for omega, Initial residual = 1.32842e-08, Final residual = 8.62213e-11, No Iterations 1
ExecutionTime = 11.35 s  ClockTime = 13 s

Time = 296

DILUPBiCGStab:  Solving for omega, Initial residual = 1.28694e-08, Final residual = 8.36546e-11, No Iterations 1
ExecutionTime = 11.39 s  ClockTime = 13 s

Time = 297

DILUPBiCGStab:  Solving for omega, Initial residual = 1.24674e-08, Final residual = 8.11533e-11, No Iterations 1
ExecutionTime = 11.43 s  ClockTime = 14 s

Time = 298

DILUPBiCGStab:  Solving for omega, Initial residual = 1.2078e-08, Final residual = 7.87203e-11, No Iterations 1
ExecutionTime = 11.47 s  ClockTime = 14 s

Time = 299

DILUPBiCGStab:  Solving for omega, Initial residual = 1.17007e-08, Final residual = 7.63566e-11, No Iterations 1
ExecutionTime = 11.51 s  ClockTime = 14 s

Time = 300

DILUPBiCGStab:  Solving for omega, Initial residual = 1.13351e-08, Final residual = 7.40618e-11, No Iterations 1
ExecutionTime = 11.54 s  ClockTime = 14 s

Time = 301

DILUPBiCGStab:  Solving for omega, Initial residual = 1.09809e-08, Final residual = 7.18345e-11, No Iterations 1
ExecutionTime = 11.57 s  ClockTime = 14 s

Time = 302

DILUPBiCGStab:  Solving for omega, Initial residual = 1.06377e-08, Final residual = 6.96733e-11, No Iterations 1
ExecutionTime = 11.61 s  ClockTime = 14 s

Time = 303

DILUPBiCGStab:  Solving for omega, Initial residual = 1.03052e-08, Final residual = 6.75764e-11, No Iterations 1
ExecutionTime = 11.64 s  ClockTime = 14 s

Time = 304

DILUPBiCGStab:  Solving for omega, Initial residual = 9.98312e-09, Final residual = 6.55418e-11, No Iterations 1
ExecutionTime = 11.67 s  ClockTime = 14 s

Time = 305

DILUPBiCGStab:  Solving for omega, Initial residual = 9.67104e-09, Final residual = 6.35679e-11, No Iterations 1
ExecutionTime = 11.7 s  ClockTime = 14 s

Time = 306

DILUPBiCGStab:  Solving for omega, Initial residual = 9.36868e-09, Final residual = 6.16526e-11, No Iterations 1
ExecutionTime = 11.73 s  ClockTime = 14 s

Time = 307

DILUPBiCGStab:  Solving for omega, Initial residual = 9.07574e-09, Final residual = 5.97943e-11, No Iterations 1
ExecutionTime = 11.76 s  ClockTime = 14 s

Time = 308

DILUPBiCGStab:  Solving for omega, Initial residual = 8.79194e-09, Final residual = 5.79913e-11, No Iterations 1
ExecutionTime = 11.79 s  ClockTime = 14 s

Time = 309

DILUPBiCGStab:  Solving for omega, Initial residual = 8.51699e-09, Final residual = 5.62418e-11, No Iterations 1
ExecutionTime = 11.82 s  ClockTime = 14 s

Time = 310

DILUPBiCGStab:  Solving for omega, Initial residual = 8.25062e-09, Final residual = 5.45442e-11, No Iterations 1
ExecutionTime = 11.85 s  ClockTime = 14 s

Time = 311

DILUPBiCGStab:  Solving for omega, Initial residual = 7.99256e-09, Final residual = 5.28971e-11, No Iterations 1
ExecutionTime = 11.88 s  ClockTime = 14 s

Time = 312

DILUPBiCGStab:  Solving for omega, Initial residual = 7.74255e-09, Final residual = 5.12987e-11, No Iterations 1
ExecutionTime = 11.91 s  ClockTime = 14 s

Time = 313

DILUPBiCGStab:  Solving for omega, Initial residual = 7.50034e-09, Final residual = 4.97479e-11, No Iterations 1
ExecutionTime = 11.94 s  ClockTime = 14 s

Time = 314

DILUPBiCGStab:  Solving for omega, Initial residual = 7.2657e-09, Final residual = 4.82431e-11, No Iterations 1
ExecutionTime = 11.97 s  ClockTime = 14 s

Time = 315

DILUPBiCGStab:  Solving for omega, Initial residual = 7.03839e-09, Final residual = 4.6783e-11, No Iterations 1
ExecutionTime = 11.99 s  ClockTime = 14 s

Time = 316

DILUPBiCGStab:  Solving for omega, Initial residual = 6.81817e-09, Final residual = 4.53663e-11, No Iterations 1
ExecutionTime = 12.02 s  ClockTime = 14 s

Time = 317

DILUPBiCGStab:  Solving for omega, Initial residual = 6.60484e-09, Final residual = 4.39917e-11, No Iterations 1
ExecutionTime = 12.05 s  ClockTime = 14 s

Time = 318

DILUPBiCGStab:  Solving for omega, Initial residual = 6.39817e-09, Final residual = 4.26581e-11, No Iterations 1
ExecutionTime = 12.07 s  ClockTime = 14 s

Time = 319

DILUPBiCGStab:  Solving for omega, Initial residual = 6.19796e-09, Final residual = 4.13642e-11, No Iterations 1
ExecutionTime = 12.1 s  ClockTime = 14 s

Time = 320

DILUPBiCGStab:  Solving for omega, Initial residual = 6.00401e-09, Final residual = 4.01089e-11, No Iterations 1
ExecutionTime = 12.13 s  ClockTime = 14 s

Time = 321

DILUPBiCGStab:  Solving for omega, Initial residual = 5.81612e-09, Final residual = 3.88912e-11, No Iterations 1
ExecutionTime = 12.16 s  ClockTime = 14 s

Time = 322

DILUPBiCGStab:  Solving for omega, Initial residual = 5.63411e-09, Final residual = 3.77097e-11, No Iterations 1
ExecutionTime = 12.19 s  ClockTime = 14 s

Time = 323

DILUPBiCGStab:  Solving for omega, Initial residual = 5.45779e-09, Final residual = 3.65637e-11, No Iterations 1
ExecutionTime = 12.22 s  ClockTime = 14 s

Time = 324

DILUPBiCGStab:  Solving for omega, Initial residual = 5.28698e-09, Final residual = 3.54519e-11, No Iterations 1
ExecutionTime = 12.26 s  ClockTime = 14 s

Time = 325

DILUPBiCGStab:  Solving for omega, Initial residual = 5.12151e-09, Final residual = 3.43734e-11, No Iterations 1
ExecutionTime = 12.29 s  ClockTime = 14 s

Time = 326

DILUPBiCGStab:  Solving for omega, Initial residual = 4.96123e-09, Final residual = 3.33273e-11, No Iterations 1
ExecutionTime = 12.32 s  ClockTime = 15 s

Time = 327

DILUPBiCGStab:  Solving for omega, Initial residual = 4.80595e-09, Final residual = 3.23125e-11, No Iterations 1
ExecutionTime = 12.35 s  ClockTime = 15 s

Time = 328

DILUPBiCGStab:  Solving for omega, Initial residual = 4.65554e-09, Final residual = 3.13283e-11, No Iterations 1
ExecutionTime = 12.38 s  ClockTime = 15 s

Time = 329

DILUPBiCGStab:  Solving for omega, Initial residual = 4.50983e-09, Final residual = 3.03736e-11, No Iterations 1
ExecutionTime = 12.42 s  ClockTime = 15 s

Time = 330

DILUPBiCGStab:  Solving for omega, Initial residual = 4.36869e-09, Final residual = 2.94477e-11, No Iterations 1
ExecutionTime = 12.45 s  ClockTime = 15 s

Time = 331

DILUPBiCGStab:  Solving for omega, Initial residual = 4.23196e-09, Final residual = 2.85497e-11, No Iterations 1
ExecutionTime = 12.48 s  ClockTime = 15 s

Time = 332

DILUPBiCGStab:  Solving for omega, Initial residual = 4.09951e-09, Final residual = 2.76787e-11, No Iterations 1
ExecutionTime = 12.51 s  ClockTime = 15 s

Time = 333

DILUPBiCGStab:  Solving for omega, Initial residual = 3.97121e-09, Final residual = 2.68341e-11, No Iterations 1
ExecutionTime = 12.54 s  ClockTime = 15 s

Time = 334

DILUPBiCGStab:  Solving for omega, Initial residual = 3.84692e-09, Final residual = 2.60149e-11, No Iterations 1
ExecutionTime = 12.57 s  ClockTime = 15 s

Time = 335

DILUPBiCGStab:  Solving for omega, Initial residual = 3.72653e-09, Final residual = 2.52205e-11, No Iterations 1
ExecutionTime = 12.61 s  ClockTime = 15 s

Time = 336

DILUPBiCGStab:  Solving for omega, Initial residual = 3.60991e-09, Final residual = 2.44501e-11, No Iterations 1
ExecutionTime = 12.65 s  ClockTime = 15 s

Time = 337

DILUPBiCGStab:  Solving for omega, Initial residual = 3.49694e-09, Final residual = 2.3703e-11, No Iterations 1
ExecutionTime = 12.68 s  ClockTime = 15 s

Time = 338

DILUPBiCGStab:  Solving for omega, Initial residual = 3.3875e-09, Final residual = 2.29786e-11, No Iterations 1
ExecutionTime = 12.73 s  ClockTime = 15 s

Time = 339

DILUPBiCGStab:  Solving for omega, Initial residual = 3.2815e-09, Final residual = 2.22761e-11, No Iterations 1
ExecutionTime = 12.77 s  ClockTime = 15 s

Time = 340

DILUPBiCGStab:  Solving for omega, Initial residual = 3.17881e-09, Final residual = 2.15949e-11, No Iterations 1
ExecutionTime = 12.8 s  ClockTime = 15 s

Time = 341

DILUPBiCGStab:  Solving for omega, Initial residual = 3.07934e-09, Final residual = 2.09343e-11, No Iterations 1
ExecutionTime = 12.83 s  ClockTime = 15 s

Time = 342

DILUPBiCGStab:  Solving for omega, Initial residual = 2.98299e-09, Final residual = 2.02938e-11, No Iterations 1
ExecutionTime = 12.86 s  ClockTime = 15 s

Time = 343

DILUPBiCGStab:  Solving for omega, Initial residual = 2.88966e-09, Final residual = 1.96728e-11, No Iterations 1
ExecutionTime = 12.89 s  ClockTime = 15 s

Time = 344

DILUPBiCGStab:  Solving for omega, Initial residual = 2.79925e-09, Final residual = 1.90706e-11, No Iterations 1
ExecutionTime = 12.92 s  ClockTime = 15 s

Time = 345

DILUPBiCGStab:  Solving for omega, Initial residual = 2.71167e-09, Final residual = 1.84868e-11, No Iterations 1
ExecutionTime = 12.95 s  ClockTime = 15 s

Time = 346

DILUPBiCGStab:  Solving for omega, Initial residual = 2.62683e-09, Final residual = 1.79207e-11, No Iterations 1
ExecutionTime = 12.98 s  ClockTime = 15 s

Time = 347

DILUPBiCGStab:  Solving for omega, Initial residual = 2.54465e-09, Final residual = 1.73718e-11, No Iterations 1
ExecutionTime = 13.01 s  ClockTime = 15 s

Time = 348

DILUPBiCGStab:  Solving for omega, Initial residual = 2.46505e-09, Final residual = 1.68397e-11, No Iterations 1
ExecutionTime = 13.04 s  ClockTime = 15 s

Time = 349

DILUPBiCGStab:  Solving for omega, Initial residual = 2.38794e-09, Final residual = 1.63238e-11, No Iterations 1
ExecutionTime = 13.07 s  ClockTime = 15 s

Time = 350

DILUPBiCGStab:  Solving for omega, Initial residual = 2.31325e-09, Final residual = 1.58236e-11, No Iterations 1
ExecutionTime = 13.09 s  ClockTime = 15 s

Time = 351

DILUPBiCGStab:  Solving for omega, Initial residual = 2.2409e-09, Final residual = 1.53386e-11, No Iterations 1
ExecutionTime = 13.12 s  ClockTime = 15 s

Time = 352

DILUPBiCGStab:  Solving for omega, Initial residual = 2.17081e-09, Final residual = 1.48684e-11, No Iterations 1
ExecutionTime = 13.15 s  ClockTime = 15 s

Time = 353

DILUPBiCGStab:  Solving for omega, Initial residual = 2.10292e-09, Final residual = 1.44126e-11, No Iterations 1
ExecutionTime = 13.18 s  ClockTime = 15 s

Time = 354

DILUPBiCGStab:  Solving for omega, Initial residual = 2.03716e-09, Final residual = 1.39707e-11, No Iterations 1
ExecutionTime = 13.21 s  ClockTime = 16 s

Time = 355

DILUPBiCGStab:  Solving for omega, Initial residual = 1.97345e-09, Final residual = 1.35423e-11, No Iterations 1
ExecutionTime = 13.25 s  ClockTime = 16 s

Time = 356

DILUPBiCGStab:  Solving for omega, Initial residual = 1.91174e-09, Final residual = 1.3127e-11, No Iterations 1
ExecutionTime = 13.29 s  ClockTime = 16 s

Time = 357

DILUPBiCGStab:  Solving for omega, Initial residual = 1.85197e-09, Final residual = 1.27244e-11, No Iterations 1
ExecutionTime = 13.32 s  ClockTime = 16 s

Time = 358

DILUPBiCGStab:  Solving for omega, Initial residual = 1.79407e-09, Final residual = 9.84708e-11, No Iterations 1
ExecutionTime = 13.35 s  ClockTime = 16 s

Time = 359

DILUPBiCGStab:  Solving for omega, Initial residual = 1.73913e-09, Final residual = 9.59655e-11, No Iterations 1
ExecutionTime = 13.4 s  ClockTime = 16 s

Time = 360

DILUPBiCGStab:  Solving for omega, Initial residual = 1.6858e-09, Final residual = 9.34923e-11, No Iterations 1
ExecutionTime = 13.44 s  ClockTime = 16 s

Time = 361

DILUPBiCGStab:  Solving for omega, Initial residual = 1.63404e-09, Final residual = 9.10572e-11, No Iterations 1
ExecutionTime = 13.48 s  ClockTime = 16 s

Time = 362

DILUPBiCGStab:  Solving for omega, Initial residual = 1.58386e-09, Final residual = 8.86726e-11, No Iterations 1
ExecutionTime = 13.52 s  ClockTime = 16 s

Time = 363

DILUPBiCGStab:  Solving for omega, Initial residual = 1.5352e-09, Final residual = 8.63373e-11, No Iterations 1
ExecutionTime = 13.55 s  ClockTime = 16 s

Time = 364

DILUPBiCGStab:  Solving for omega, Initial residual = 1.48804e-09, Final residual = 8.40549e-11, No Iterations 1
ExecutionTime = 13.58 s  ClockTime = 16 s

Time = 365

DILUPBiCGStab:  Solving for omega, Initial residual = 1.44231e-09, Final residual = 8.18231e-11, No Iterations 1
ExecutionTime = 13.61 s  ClockTime = 16 s

Time = 366

DILUPBiCGStab:  Solving for omega, Initial residual = 1.398e-09, Final residual = 7.96442e-11, No Iterations 1
ExecutionTime = 13.64 s  ClockTime = 16 s

Time = 367

DILUPBiCGStab:  Solving for omega, Initial residual = 1.35504e-09, Final residual = 7.75164e-11, No Iterations 1
ExecutionTime = 13.67 s  ClockTime = 16 s

Time = 368

DILUPBiCGStab:  Solving for omega, Initial residual = 1.31342e-09, Final residual = 7.54405e-11, No Iterations 1
ExecutionTime = 13.71 s  ClockTime = 16 s

Time = 369

DILUPBiCGStab:  Solving for omega, Initial residual = 1.27307e-09, Final residual = 7.34145e-11, No Iterations 1
ExecutionTime = 13.74 s  ClockTime = 16 s

Time = 370

DILUPBiCGStab:  Solving for omega, Initial residual = 1.23397e-09, Final residual = 7.14386e-11, No Iterations 1
ExecutionTime = 13.77 s  ClockTime = 16 s

Time = 371

DILUPBiCGStab:  Solving for omega, Initial residual = 1.19608e-09, Final residual = 6.95114e-11, No Iterations 1
ExecutionTime = 13.8 s  ClockTime = 16 s

Time = 372

DILUPBiCGStab:  Solving for omega, Initial residual = 1.15936e-09, Final residual = 6.76325e-11, No Iterations 1
ExecutionTime = 13.83 s  ClockTime = 16 s

Time = 373

DILUPBiCGStab:  Solving for omega, Initial residual = 1.12377e-09, Final residual = 6.58008e-11, No Iterations 1
ExecutionTime = 13.86 s  ClockTime = 16 s

Time = 374

DILUPBiCGStab:  Solving for omega, Initial residual = 1.08929e-09, Final residual = 6.40157e-11, No Iterations 1
ExecutionTime = 13.89 s  ClockTime = 16 s

Time = 375

DILUPBiCGStab:  Solving for omega, Initial residual = 1.05587e-09, Final residual = 6.22761e-11, No Iterations 1
ExecutionTime = 13.92 s  ClockTime = 16 s

Time = 376

DILUPBiCGStab:  Solving for omega, Initial residual = 1.02348e-09, Final residual = 6.05812e-11, No Iterations 1
ExecutionTime = 13.95 s  ClockTime = 16 s

Time = 377

DILUPBiCGStab:  Solving for omega, Initial residual = 9.92098e-10, Final residual = 5.89297e-11, No Iterations 1
ExecutionTime = 13.98 s  ClockTime = 16 s

Time = 378

DILUPBiCGStab:  Solving for omega, Initial residual = 9.61684e-10, Final residual = 5.7321e-11, No Iterations 1
ExecutionTime = 14.02 s  ClockTime = 16 s

Time = 379

DILUPBiCGStab:  Solving for omega, Initial residual = 9.32211e-10, Final residual = 5.57543e-11, No Iterations 1
ExecutionTime = 14.05 s  ClockTime = 16 s

Time = 380

DILUPBiCGStab:  Solving for omega, Initial residual = 9.03649e-10, Final residual = 5.42288e-11, No Iterations 1
ExecutionTime = 14.08 s  ClockTime = 16 s

Time = 381

DILUPBiCGStab:  Solving for omega, Initial residual = 8.7597e-10, Final residual = 5.27434e-11, No Iterations 1
ExecutionTime = 14.11 s  ClockTime = 17 s

Time = 382

DILUPBiCGStab:  Solving for omega, Initial residual = 8.49146e-10, Final residual = 5.12968e-11, No Iterations 1
ExecutionTime = 14.15 s  ClockTime = 17 s

Time = 383

DILUPBiCGStab:  Solving for omega, Initial residual = 8.23151e-10, Final residual = 4.98882e-11, No Iterations 1
ExecutionTime = 14.18 s  ClockTime = 17 s

Time = 384

DILUPBiCGStab:  Solving for omega, Initial residual = 7.9796e-10, Final residual = 4.85167e-11, No Iterations 1
ExecutionTime = 14.21 s  ClockTime = 17 s

Time = 385

DILUPBiCGStab:  Solving for omega, Initial residual = 7.73546e-10, Final residual = 4.71814e-11, No Iterations 1
ExecutionTime = 14.25 s  ClockTime = 17 s

Time = 386

DILUPBiCGStab:  Solving for omega, Initial residual = 7.49886e-10, Final residual = 4.58815e-11, No Iterations 1
ExecutionTime = 14.27 s  ClockTime = 17 s

Time = 387

DILUPBiCGStab:  Solving for omega, Initial residual = 7.26957e-10, Final residual = 4.46161e-11, No Iterations 1
ExecutionTime = 14.3 s  ClockTime = 17 s

Time = 388

DILUPBiCGStab:  Solving for omega, Initial residual = 7.04735e-10, Final residual = 4.33844e-11, No Iterations 1
ExecutionTime = 14.33 s  ClockTime = 17 s

Time = 389

DILUPBiCGStab:  Solving for omega, Initial residual = 6.83199e-10, Final residual = 4.21856e-11, No Iterations 1
ExecutionTime = 14.36 s  ClockTime = 17 s

Time = 390

DILUPBiCGStab:  Solving for omega, Initial residual = 6.62327e-10, Final residual = 4.10188e-11, No Iterations 1
ExecutionTime = 14.39 s  ClockTime = 17 s

Time = 391

DILUPBiCGStab:  Solving for omega, Initial residual = 6.42098e-10, Final residual = 3.98833e-11, No Iterations 1
ExecutionTime = 14.42 s  ClockTime = 17 s

Time = 392

DILUPBiCGStab:  Solving for omega, Initial residual = 6.22493e-10, Final residual = 3.87786e-11, No Iterations 1
ExecutionTime = 14.45 s  ClockTime = 17 s

Time = 393

DILUPBiCGStab:  Solving for omega, Initial residual = 6.03492e-10, Final residual = 3.77035e-11, No Iterations 1
ExecutionTime = 14.48 s  ClockTime = 17 s

Time = 394

DILUPBiCGStab:  Solving for omega, Initial residual = 5.85077e-10, Final residual = 3.66574e-11, No Iterations 1
ExecutionTime = 14.51 s  ClockTime = 17 s

Time = 395

DILUPBiCGStab:  Solving for omega, Initial residual = 5.67228e-10, Final residual = 3.56396e-11, No Iterations 1
ExecutionTime = 14.54 s  ClockTime = 17 s

Time = 396

DILUPBiCGStab:  Solving for omega, Initial residual = 5.49929e-10, Final residual = 3.46492e-11, No Iterations 1
ExecutionTime = 14.58 s  ClockTime = 17 s

Time = 397

DILUPBiCGStab:  Solving for omega, Initial residual = 5.33162e-10, Final residual = 3.36857e-11, No Iterations 1
ExecutionTime = 14.61 s  ClockTime = 17 s

Time = 398

DILUPBiCGStab:  Solving for omega, Initial residual = 5.16911e-10, Final residual = 3.27483e-11, No Iterations 1
ExecutionTime = 14.64 s  ClockTime = 17 s

Time = 399

DILUPBiCGStab:  Solving for omega, Initial residual = 5.01159e-10, Final residual = 3.18364e-11, No Iterations 1
ExecutionTime = 14.68 s  ClockTime = 17 s

Time = 400

DILUPBiCGStab:  Solving for omega, Initial residual = 4.85892e-10, Final residual = 3.09494e-11, No Iterations 1
ExecutionTime = 14.71 s  ClockTime = 17 s

Time = 401

DILUPBiCGStab:  Solving for omega, Initial residual = 4.71094e-10, Final residual = 3.00865e-11, No Iterations 1
ExecutionTime = 14.75 s  ClockTime = 17 s

Time = 402

DILUPBiCGStab:  Solving for omega, Initial residual = 4.5675e-10, Final residual = 2.92472e-11, No Iterations 1
ExecutionTime = 14.79 s  ClockTime = 17 s

Time = 403

DILUPBiCGStab:  Solving for omega, Initial residual = 4.42847e-10, Final residual = 2.8431e-11, No Iterations 1
ExecutionTime = 14.82 s  ClockTime = 17 s

Time = 404

DILUPBiCGStab:  Solving for omega, Initial residual = 4.29371e-10, Final residual = 2.76371e-11, No Iterations 1
ExecutionTime = 14.85 s  ClockTime = 17 s

Time = 405

DILUPBiCGStab:  Solving for omega, Initial residual = 4.16308e-10, Final residual = 2.68651e-11, No Iterations 1
ExecutionTime = 14.88 s  ClockTime = 17 s

Time = 406

DILUPBiCGStab:  Solving for omega, Initial residual = 4.03646e-10, Final residual = 2.61142e-11, No Iterations 1
ExecutionTime = 14.91 s  ClockTime = 17 s

Time = 407

DILUPBiCGStab:  Solving for omega, Initial residual = 3.91373e-10, Final residual = 2.5384e-11, No Iterations 1
ExecutionTime = 14.94 s  ClockTime = 17 s

Time = 408

DILUPBiCGStab:  Solving for omega, Initial residual = 3.79475e-10, Final residual = 2.46738e-11, No Iterations 1
ExecutionTime = 14.97 s  ClockTime = 17 s

Time = 409

DILUPBiCGStab:  Solving for omega, Initial residual = 3.67943e-10, Final residual = 2.39831e-11, No Iterations 1
ExecutionTime = 15 s  ClockTime = 18 s

Time = 410

DILUPBiCGStab:  Solving for omega, Initial residual = 3.56763e-10, Final residual = 2.33115e-11, No Iterations 1
ExecutionTime = 15.03 s  ClockTime = 18 s

Time = 411

DILUPBiCGStab:  Solving for omega, Initial residual = 3.45926e-10, Final residual = 2.26583e-11, No Iterations 1
ExecutionTime = 15.06 s  ClockTime = 18 s

Time = 412

DILUPBiCGStab:  Solving for omega, Initial residual = 3.35421e-10, Final residual = 2.20232e-11, No Iterations 1
ExecutionTime = 15.09 s  ClockTime = 18 s

Time = 413

DILUPBiCGStab:  Solving for omega, Initial residual = 3.25237e-10, Final residual = 2.14057e-11, No Iterations 1
ExecutionTime = 15.12 s  ClockTime = 18 s

Time = 414

DILUPBiCGStab:  Solving for omega, Initial residual = 3.15365e-10, Final residual = 2.08052e-11, No Iterations 1
ExecutionTime = 15.15 s  ClockTime = 18 s

Time = 415

DILUPBiCGStab:  Solving for omega, Initial residual = 3.05795e-10, Final residual = 2.02214e-11, No Iterations 1
ExecutionTime = 15.19 s  ClockTime = 18 s

Time = 416

DILUPBiCGStab:  Solving for omega, Initial residual = 2.96518e-10, Final residual = 1.96537e-11, No Iterations 1
ExecutionTime = 15.22 s  ClockTime = 18 s

Time = 417

DILUPBiCGStab:  Solving for omega, Initial residual = 2.87524e-10, Final residual = 1.91018e-11, No Iterations 1
ExecutionTime = 15.26 s  ClockTime = 18 s

Time = 418

DILUPBiCGStab:  Solving for omega, Initial residual = 2.78805e-10, Final residual = 1.85652e-11, No Iterations 1
ExecutionTime = 15.29 s  ClockTime = 18 s

Time = 419

DILUPBiCGStab:  Solving for omega, Initial residual = 2.70353e-10, Final residual = 1.80435e-11, No Iterations 1
ExecutionTime = 15.34 s  ClockTime = 18 s

Time = 420

DILUPBiCGStab:  Solving for omega, Initial residual = 2.62158e-10, Final residual = 1.75362e-11, No Iterations 1
ExecutionTime = 15.38 s  ClockTime = 18 s

Time = 421

DILUPBiCGStab:  Solving for omega, Initial residual = 2.54214e-10, Final residual = 1.70431e-11, No Iterations 1
ExecutionTime = 15.41 s  ClockTime = 18 s

Time = 422

DILUPBiCGStab:  Solving for omega, Initial residual = 2.46512e-10, Final residual = 1.65637e-11, No Iterations 1
ExecutionTime = 15.45 s  ClockTime = 18 s

Time = 423

DILUPBiCGStab:  Solving for omega, Initial residual = 2.39046e-10, Final residual = 1.60977e-11, No Iterations 1
ExecutionTime = 15.49 s  ClockTime = 18 s

Time = 424

DILUPBiCGStab:  Solving for omega, Initial residual = 2.31807e-10, Final residual = 1.56446e-11, No Iterations 1
ExecutionTime = 15.52 s  ClockTime = 18 s

Time = 425

DILUPBiCGStab:  Solving for omega, Initial residual = 2.24789e-10, Final residual = 1.52042e-11, No Iterations 1
ExecutionTime = 15.57 s  ClockTime = 18 s

Time = 426

DILUPBiCGStab:  Solving for omega, Initial residual = 2.17985e-10, Final residual = 1.47761e-11, No Iterations 1
ExecutionTime = 15.6 s  ClockTime = 18 s

Time = 427

DILUPBiCGStab:  Solving for omega, Initial residual = 2.11388e-10, Final residual = 1.436e-11, No Iterations 1
ExecutionTime = 15.63 s  ClockTime = 18 s

Time = 428

DILUPBiCGStab:  Solving for omega, Initial residual = 2.04992e-10, Final residual = 1.39555e-11, No Iterations 1
ExecutionTime = 15.67 s  ClockTime = 18 s

Time = 429

DILUPBiCGStab:  Solving for omega, Initial residual = 1.98791e-10, Final residual = 1.35623e-11, No Iterations 1
ExecutionTime = 15.69 s  ClockTime = 18 s

Time = 430

DILUPBiCGStab:  Solving for omega, Initial residual = 1.92779e-10, Final residual = 1.318e-11, No Iterations 1
ExecutionTime = 15.72 s  ClockTime = 18 s

Time = 431

DILUPBiCGStab:  Solving for omega, Initial residual = 1.86951e-10, Final residual = 1.28085e-11, No Iterations 1
ExecutionTime = 15.76 s  ClockTime = 18 s

Time = 432

DILUPBiCGStab:  Solving for omega, Initial residual = 1.81299e-10, Final residual = 1.24474e-11, No Iterations 1
ExecutionTime = 15.79 s  ClockTime = 18 s

Time = 433

DILUPBiCGStab:  Solving for omega, Initial residual = 1.7582e-10, Final residual = 1.20965e-11, No Iterations 1
ExecutionTime = 15.82 s  ClockTime = 18 s

Time = 434

DILUPBiCGStab:  Solving for omega, Initial residual = 1.70507e-10, Final residual = 1.17553e-11, No Iterations 1
ExecutionTime = 15.85 s  ClockTime = 18 s

Time = 435

DILUPBiCGStab:  Solving for omega, Initial residual = 1.65356e-10, Final residual = 1.14238e-11, No Iterations 1
ExecutionTime = 15.88 s  ClockTime = 18 s

Time = 436

DILUPBiCGStab:  Solving for omega, Initial residual = 1.60361e-10, Final residual = 1.11015e-11, No Iterations 1
ExecutionTime = 15.9 s  ClockTime = 19 s

Time = 437

DILUPBiCGStab:  Solving for omega, Initial residual = 1.55518e-10, Final residual = 1.07883e-11, No Iterations 1
ExecutionTime = 15.94 s  ClockTime = 19 s

Time = 438

DILUPBiCGStab:  Solving for omega, Initial residual = 1.50823e-10, Final residual = 1.04838e-11, No Iterations 1
ExecutionTime = 15.97 s  ClockTime = 19 s

Time = 439

DILUPBiCGStab:  Solving for omega, Initial residual = 1.4627e-10, Final residual = 1.0188e-11, No Iterations 1
ExecutionTime = 15.99 s  ClockTime = 19 s

Time = 440

DILUPBiCGStab:  Solving for omega, Initial residual = 1.41856e-10, Final residual = 9.9004e-12, No Iterations 1
ExecutionTime = 16.02 s  ClockTime = 19 s

Time = 441

DILUPBiCGStab:  Solving for omega, Initial residual = 1.37575e-10, Final residual = 9.6209e-12, No Iterations 1
ExecutionTime = 16.05 s  ClockTime = 19 s

Time = 442

DILUPBiCGStab:  Solving for omega, Initial residual = 1.33425e-10, Final residual = 9.34925e-12, No Iterations 1
ExecutionTime = 16.08 s  ClockTime = 19 s

Time = 443

DILUPBiCGStab:  Solving for omega, Initial residual = 1.294e-10, Final residual = 9.08523e-12, No Iterations 1
ExecutionTime = 16.11 s  ClockTime = 19 s

Time = 444

DILUPBiCGStab:  Solving for omega, Initial residual = 1.25498e-10, Final residual = 8.82864e-12, No Iterations 1
ExecutionTime = 16.13 s  ClockTime = 19 s

Time = 445

DILUPBiCGStab:  Solving for omega, Initial residual = 1.21714e-10, Final residual = 8.57927e-12, No Iterations 1
ExecutionTime = 16.16 s  ClockTime = 19 s

Time = 446

DILUPBiCGStab:  Solving for omega, Initial residual = 1.18045e-10, Final residual = 8.33691e-12, No Iterations 1
ExecutionTime = 16.2 s  ClockTime = 19 s

Time = 447

DILUPBiCGStab:  Solving for omega, Initial residual = 1.14487e-10, Final residual = 8.10138e-12, No Iterations 1
ExecutionTime = 16.23 s  ClockTime = 19 s

Time = 448

DILUPBiCGStab:  Solving for omega, Initial residual = 1.11037e-10, Final residual = 7.87247e-12, No Iterations 1
ExecutionTime = 16.26 s  ClockTime = 19 s

Time = 449

DILUPBiCGStab:  Solving for omega, Initial residual = 1.07692e-10, Final residual = 7.65002e-12, No Iterations 1
ExecutionTime = 16.29 s  ClockTime = 19 s

Time = 450

DILUPBiCGStab:  Solving for omega, Initial residual = 1.04448e-10, Final residual = 7.43383e-12, No Iterations 1
ExecutionTime = 16.32 s  ClockTime = 19 s

Time = 451

DILUPBiCGStab:  Solving for omega, Initial residual = 1.01303e-10, Final residual = 7.22374e-12, No Iterations 1
ExecutionTime = 16.35 s  ClockTime = 19 s

Time = 452

DILUPBiCGStab:  Solving for omega, Initial residual = 9.82522e-11, Final residual = 9.82522e-11, No Iterations 0
ExecutionTime = 16.38 s  ClockTime = 19 s

Time = 453

DILUPBiCGStab:  Solving for omega, Initial residual = 9.82522e-11, Final residual = 9.82522e-11, No Iterations 0
ExecutionTime = 16.41 s  ClockTime = 19 s

Time = 454

DILUPBiCGStab:  Solving for omega, Initial residual = 9.82522e-11, Final residual = 9.82522e-11, No Iterations 0
ExecutionTime = 16.44 s  ClockTime = 19 s

Time = 455

DILUPBiCGStab:  Solving for omega, Initial residual = 9.82522e-11, Final residual = 9.82522e-11, No Iterations 0
ExecutionTime = 16.47 s  ClockTime = 19 s

Time = 456

DILUPBiCGStab:  Solving for omega, Initial residual = 9.82522e-11, Final residual = 9.82522e-11, No Iterations 0
ExecutionTime = 16.5 s  ClockTime = 19 s

Time = 457

DILUPBiCGStab:  Solving for omega, Initial residual = 9.82522e-11, Final residual = 9.82522e-11, No Iterations 0
ExecutionTime = 16.53 s  ClockTime = 19 s

Time = 458

DILUPBiCGStab:  Solving for omega, Initial residual = 9.82522e-11, Final residual = 9.82522e-11, No Iterations 0
ExecutionTime = 16.56 s  ClockTime = 19 s

Time = 459

DILUPBiCGStab:  Solving for omega, Initial residual = 9.82522e-11, Final residual = 9.82522e-11, No Iterations 0
ExecutionTime = 16.59 s  ClockTime = 19 s

Time = 460

DILUPBiCGStab:  Solving for omega, Initial residual = 9.82522e-11, Final residual = 9.82522e-11, No Iterations 0
ExecutionTime = 16.63 s  ClockTime = 19 s

Time = 461

DILUPBiCGStab:  Solving for omega, Initial residual = 9.82522e-11, Final residual = 9.82522e-11, No Iterations 0
ExecutionTime = 16.66 s  ClockTime = 19 s

Time = 462

DILUPBiCGStab:  Solving for omega, Initial residual = 9.82522e-11, Final residual = 9.82522e-11, No Iterations 0
ExecutionTime = 16.69 s  ClockTime = 19 s

Time = 463

DILUPBiCGStab:  Solving for omega, Initial residual = 9.82522e-11, Final residual = 9.82522e-11, No Iterations 0
ExecutionTime = 16.73 s  ClockTime = 19 s

Time = 464

DILUPBiCGStab:  Solving for omega, Initial residual = 9.82522e-11, Final residual = 9.82522e-11, No Iterations 0
ExecutionTime = 16.76 s  ClockTime = 19 s

Time = 465

[...]

Time = 5885

DILUPBiCGStab:  Solving for omega, Initial residual = 9.82522e-11, Final residual = 9.82522e-11, No Iterations 0
ExecutionTime = 178.95 s  ClockTime = 210 s

Time = 5886

DILUPBiCGStab:  Solving for omega, Initial residual = 9.82522e-11, Final residual = 9.82522e-11, No Iterations 0
ExecutionTime = 178.98 s  ClockTime = 210 s

Time = 5887

DILUPBiCGStab:  Solving for omega, Initial residual = 9.82522e-11, Final residual = 9.82522e-11, No Iterations 0
ExecutionTime = 179.01 s  ClockTime = 210 s

Time = 5888

DILUPBiCGStab:  Solving for omega, Initial residual = 9.82522e-11, Final residual = 9.82522e-11, No Iterations 0
ExecutionTime = 179.04 s  ClockTime = 210 s

Time = 5889

DILUPBiCGStab:  Solving for omega, Initial residual = 9.82522e-11, Final residual = 9.82522e-11, No Iterations 0
ExecutionTime = 179.08 s  ClockTime = 210 s

Time = 5890

DILUPBiCGStab:  Solving for omega, Initial residual = 9.82522e-11, Final residual = 9.82522e-11, No Iterations 0
ExecutionTime = 179.12 s  ClockTime = 210 s

Time = 5891

DILUPBiCGStab:  Solving for omega, Initial residual = 9.82522e-11, Final residual = 9.82522e-11, No Iterations 0
ExecutionTime = 179.15 s  ClockTime = 210 s

Time = 5892

DILUPBiCGStab:  Solving for omega, Initial residual = 9.82522e-11, Final residual = 9.82522e-11, No Iterations 0
ExecutionTime = 179.19 s  ClockTime = 210 s

Time = 5893

DILUPBiCGStab:  Solving for omega, Initial residual = 9.82522e-11, Final residual = 9.82522e-11, No Iterations 0
ExecutionTime = 179.22 s  ClockTime = 210 s

Time = 5894

DILUPBiCGStab:  Solving for omega, Initial residual = 9.82522e-11, Final residual = 9.82522e-11, No Iterations 0
ExecutionTime = 179.25 s  ClockTime = 210 s

Time = 5895

DILUPBiCGStab:  Solving for omega, Initial residual = 9.82522e-11, Final residual = 9.82522e-11, No Iterations 0
ExecutionTime = 179.28 s  ClockTime = 210 s

Time = 5896

DILUPBiCGStab:  Solving for omega, Initial residual = 9.82522e-11, Final residual = 9.82522e-11, No Iterations 0
ExecutionTime = 179.3 s  ClockTime = 210 s

Time = 5897

DILUPBiCGStab:  Solving for omega, Initial residual = 9.82522e-11, Final residual = 9.82522e-11, No Iterations 0
ExecutionTime = 179.34 s  ClockTime = 210 s

Time = 5898

DILUPBiCGStab:  Solving for omega, Initial residual = 9.82522e-11, Final residual = 9.82522e-11, No Iterations 0
ExecutionTime = 179.37 s  ClockTime = 210 s

Time = 5899

DILUPBiCGStab:  Solving for omega, Initial residual = 9.82522e-11, Final residual = 9.82522e-11, No Iterations 0
ExecutionTime = 179.41 s  ClockTime = 210 s

Time = 5900

DILUPBiCGStab:  Solving for omega, Initial residual = 9.82522e-11, Final residual = 9.82522e-11, No Iterations 0
ExecutionTime = 179.44 s  ClockTime = 210 s

Time = 5901

DILUPBiCGStab:  Solving for omega, Initial residual = 9.82522e-11, Final residual = 9.82522e-11, No Iterations 0
ExecutionTime = 179.47 s  ClockTime = 210 s

Time = 5902

DILUPBiCGStab:  Solving for omega, Initial residual = 9.82522e-11, Final residual = 9.82522e-11, No Iterations 0
ExecutionTime = 179.51 s  ClockTime = 210 s

Time = 5903

DILUPBiCGStab:  Solving for omega, Initial residual = 9.82522e-11, Final residual = 9.82522e-11, No Iterations 0
ExecutionTime = 179.54 s  ClockTime = 210 s

Time = 5904

DILUPBiCGStab:  Solving for omega, Initial residual = 9.82522e-11, Final residual = 9.82522e-11, No Iterations 0
ExecutionTime = 179.58 s  ClockTime = 210 s

Time = 5905

DILUPBiCGStab:  Solving for omega, Initial residual = 9.82522e-11, Final residual = 9.82522e-11, No Iterations 0
ExecutionTime = 179.61 s  ClockTime = 210 s

Time = 5906

DILUPBiCGStab:  Solving for omega, Initial residual = 9.82522e-11, Final residual = 9.82522e-11, No Iterations 0
ExecutionTime = 179.66 s  ClockTime = 210 s

Time = 5907

DILUPBiCGStab:  Solving for omega, Initial residual = 9.82522e-11, Final residual = 9.82522e-11, No Iterations 0
ExecutionTime = 179.69 s  ClockTime = 210 s

Time = 5908

DILUPBiCGStab:  Solving for omega, Initial residual = 9.82522e-11, Final residual = 9.82522e-11, No Iterations 0
ExecutionTime = 179.73 s  ClockTime = 210 s

Time = 5909

DILUPBiCGStab:  Solving for omega, Initial residual = 9.82522e-11, Final residual = 9.82522e-11, No Iterations 0
ExecutionTime = 179.77 s  ClockTime = 211 s

Time = 5910

DILUPBiCGStab:  Solving for omega, Initial residual = 9.82522e-11, Final residual = 9.82522e-11, No Iterations 0
ExecutionTime = 179.81 s  ClockTime = 211 s

Time = 5911

DILUPBiCGStab:  Solving for omega, Initial residual = 9.82522e-11, Final residual = 9.82522e-11, No Iterations 0
ExecutionTime = 179.84 s  ClockTime = 211 s

Time = 5912

DILUPBiCGStab:  Solving for omega, Initial residual = 9.82522e-11, Final residual = 9.82522e-11, No Iterations 0
ExecutionTime = 179.87 s  ClockTime = 211 s

Time = 5913

DILUPBiCGStab:  Solving for omega, Initial residual = 9.82522e-11, Final residual = 9.82522e-11, No Iterations 0
ExecutionTime = 179.9 s  ClockTime = 211 s

Time = 5914

DILUPBiCGStab:  Solving for omega, Initial residual = 9.82522e-11, Final residual = 9.82522e-11, No Iterations 0
ExecutionTime = 179.93 s  ClockTime = 211 s

Time = 5915

DILUPBiCGStab:  Solving for omega, Initial residual = 9.82522e-11, Final residual = 9.82522e-11, No Iterations 0
ExecutionTime = 179.96 s  ClockTime = 211 s

Time = 5916

DILUPBiCGStab:  Solving for omega, Initial residual = 9.82522e-11, Final residual = 9.82522e-11, No Iterations 0
ExecutionTime = 179.98 s  ClockTime = 211 s

Time = 5917

DILUPBiCGStab:  Solving for omega, Initial residual = 9.82522e-11, Final residual = 9.82522e-11, No Iterations 0
ExecutionTime = 180.01 s  ClockTime = 211 s

Time = 5918

DILUPBiCGStab:  Solving for omega, Initial residual = 9.82522e-11, Final residual = 9.82522e-11, No Iterations 0
ExecutionTime = 180.05 s  ClockTime = 211 s

Time = 5919

DILUPBiCGStab:  Solving for omega, Initial residual = 9.82522e-11, Final residual = 9.82522e-11, No Iterations 0
ExecutionTime = 180.07 s  ClockTime = 211 s

Time = 5920

DILUPBiCGStab:  Solving for omega, Initial residual = 9.82522e-11, Final residual = 9.82522e-11, No Iterations 0
ExecutionTime = 180.1 s  ClockTime = 211 s

Time = 5921

DILUPBiCGStab:  Solving for omega, Initial residual = 9.82522e-11, Final residual = 9.82522e-11, No Iterations 0
ExecutionTime = 180.13 s  ClockTime = 211 s

Time = 5922

DILUPBiCGStab:  Solving for omega, Initial residual = 9.82522e-11, Final residual = 9.82522e-11, No Iterations 0
ExecutionTime = 180.15 s  ClockTime = 211 s

Time = 5923

DILUPBiCGStab:  Solving for omega, Initial residual = 9.82522e-11, Final residual = 9.82522e-11, No Iterations 0
ExecutionTime = 180.18 s  ClockTime = 211 s

Time = 5924

DILUPBiCGStab:  Solving for omega, Initial residual = 9.82522e-11, Final residual = 9.82522e-11, No Iterations 0
ExecutionTime = 180.21 s  ClockTime = 211 s

Time = 5925

DILUPBiCGStab:  Solving for omega, Initial residual = 9.82522e-11, Final residual = 9.82522e-11, No Iterations 0
ExecutionTime = 180.23 s  ClockTime = 211 s

Time = 5926

DILUPBiCGStab:  Solving for omega, Initial residual = 9.82522e-11, Final residual = 9.82522e-11, No Iterations 0
ExecutionTime = 180.26 s  ClockTime = 211 s

Time = 5927

DILUPBiCGStab:  Solving for omega, Initial residual = 9.82522e-11, Final residual = 9.82522e-11, No Iterations 0
ExecutionTime = 180.28 s  ClockTime = 211 s

Time = 5928

DILUPBiCGStab:  Solving for omega, Initial residual = 9.82522e-11, Final residual = 9.82522e-11, No Iterations 0
ExecutionTime = 180.3 s  ClockTime = 211 s

Time = 5929

DILUPBiCGStab:  Solving for omega, Initial residual = 9.82522e-11, Final residual = 9.82522e-11, No Iterations 0
ExecutionTime = 180.33 s  ClockTime = 211 s

Time = 5930

DILUPBiCGStab:  Solving for omega, Initial residual = 9.82522e-11, Final residual = 9.82522e-11, No Iterations 0
ExecutionTime = 180.35 s  ClockTime = 211 s

Time = 5931

DILUPBiCGStab:  Solving for omega, Initial residual = 9.82522e-11, Final residual = 9.82522e-11, No Iterations 0
ExecutionTime = 180.37 s  ClockTime = 211 s

Time = 5932

DILUPBiCGStab:  Solving for omega, Initial residual = 9.82522e-11, Final residual = 9.82522e-11, No Iterations 0
ExecutionTime = 180.4 s  ClockTime = 211 s

Time = 5933

DILUPBiCGStab:  Solving for omega, Initial residual = 9.82522e-11, Final residual = 9.82522e-11, No Iterations 0
ExecutionTime = 180.42 s  ClockTime = 211 s

Time = 5934

DILUPBiCGStab:  Solving for omega, Initial residual = 9.82522e-11, Final residual = 9.82522e-11, No Iterations 0
ExecutionTime = 180.45 s  ClockTime = 211 s

Time = 5935

DILUPBiCGStab:  Solving for omega, Initial residual = 9.82522e-11, Final residual = 9.82522e-11, No Iterations 0
ExecutionTime = 180.47 s  ClockTime = 211 s

Time = 5936

DILUPBiCGStab:  Solving for omega, Initial residual = 9.82522e-11, Final residual = 9.82522e-11, No Iterations 0
ExecutionTime = 180.49 s  ClockTime = 211 s

Time = 5937

DILUPBiCGStab:  Solving for omega, Initial residual = 9.82522e-11, Final residual = 9.82522e-11, No Iterations 0
ExecutionTime = 180.51 s  ClockTime = 211 s

Time = 5938

DILUPBiCGStab:  Solving for omega, Initial residual = 9.82522e-11, Final residual = 9.82522e-11, No Iterations 0
ExecutionTime = 180.54 s  ClockTime = 211 s

Time = 5939

DILUPBiCGStab:  Solving for omega, Initial residual = 9.82522e-11, Final residual = 9.82522e-11, No Iterations 0
ExecutionTime = 180.56 s  ClockTime = 212 s

Time = 5940

DILUPBiCGStab:  Solving for omega, Initial residual = 9.82522e-11, Final residual = 9.82522e-11, No Iterations 0
ExecutionTime = 180.58 s  ClockTime = 212 s

Time = 5941

DILUPBiCGStab:  Solving for omega, Initial residual = 9.82522e-11, Final residual = 9.82522e-11, No Iterations 0
ExecutionTime = 180.61 s  ClockTime = 212 s

Time = 5942

DILUPBiCGStab:  Solving for omega, Initial residual = 9.82522e-11, Final residual = 9.82522e-11, No Iterations 0
ExecutionTime = 180.65 s  ClockTime = 212 s

Time = 5943

DILUPBiCGStab:  Solving for omega, Initial residual = 9.82522e-11, Final residual = 9.82522e-11, No Iterations 0
ExecutionTime = 180.67 s  ClockTime = 212 s

Time = 5944

DILUPBiCGStab:  Solving for omega, Initial residual = 9.82522e-11, Final residual = 9.82522e-11, No Iterations 0
ExecutionTime = 180.7 s  ClockTime = 212 s

Time = 5945

DILUPBiCGStab:  Solving for omega, Initial residual = 9.82522e-11, Final residual = 9.82522e-11, No Iterations 0
ExecutionTime = 180.72 s  ClockTime = 212 s

Time = 5946

DILUPBiCGStab:  Solving for omega, Initial residual = 9.82522e-11, Final residual = 9.82522e-11, No Iterations 0
ExecutionTime = 180.74 s  ClockTime = 212 s

Time = 5947

DILUPBiCGStab:  Solving for omega, Initial residual = 9.82522e-11, Final residual = 9.82522e-11, No Iterations 0
ExecutionTime = 180.76 s  ClockTime = 212 s

Time = 5948

DILUPBiCGStab:  Solving for omega, Initial residual = 9.82522e-11, Final residual = 9.82522e-11, No Iterations 0
ExecutionTime = 180.79 s  ClockTime = 212 s

Time = 5949

DILUPBiCGStab:  Solving for omega, Initial residual = 9.82522e-11, Final residual = 9.82522e-11, No Iterations 0
ExecutionTime = 180.82 s  ClockTime = 212 s

Time = 5950

DILUPBiCGStab:  Solving for omega, Initial residual = 9.82522e-11, Final residual = 9.82522e-11, No Iterations 0
ExecutionTime = 180.84 s  ClockTime = 212 s

Time = 5951

DILUPBiCGStab:  Solving for omega, Initial residual = 9.82522e-11, Final residual = 9.82522e-11, No Iterations 0
ExecutionTime = 180.87 s  ClockTime = 212 s

Time = 5952

DILUPBiCGStab:  Solving for omega, Initial residual = 9.82522e-11, Final residual = 9.82522e-11, No Iterations 0
ExecutionTime = 180.9 s  ClockTime = 212 s

Time = 5953

DILUPBiCGStab:  Solving for omega, Initial residual = 9.82522e-11, Final residual = 9.82522e-11, No Iterations 0
ExecutionTime = 180.93 s  ClockTime = 212 s

Time = 5954

DILUPBiCGStab:  Solving for omega, Initial residual = 9.82522e-11, Final residual = 9.82522e-11, No Iterations 0
ExecutionTime = 180.96 s  ClockTime = 212 s

Time = 5955

DILUPBiCGStab:  Solving for omega, Initial residual = 9.82522e-11, Final residual = 9.82522e-11, No Iterations 0
ExecutionTime = 181 s  ClockTime = 212 s

Time = 5956

DILUPBiCGStab:  Solving for omega, Initial residual = 9.82522e-11, Final residual = 9.82522e-11, No Iterations 0
ExecutionTime = 181.03 s  ClockTime = 212 s

Time = 5957

DILUPBiCGStab:  Solving for omega, Initial residual = 9.82522e-11, Final residual = 9.82522e-11, No Iterations 0
ExecutionTime = 181.06 s  ClockTime = 212 s

Time = 5958

DILUPBiCGStab:  Solving for omega, Initial residual = 9.82522e-11, Final residual = 9.82522e-11, No Iterations 0
ExecutionTime = 181.1 s  ClockTime = 212 s

Time = 5959

DILUPBiCGStab:  Solving for omega, Initial residual = 9.82522e-11, Final residual = 9.82522e-11, No Iterations 0
ExecutionTime = 181.12 s  ClockTime = 212 s

Time = 5960

DILUPBiCGStab:  Solving for omega, Initial residual = 9.82522e-11, Final residual = 9.82522e-11, No Iterations 0
ExecutionTime = 181.15 s  ClockTime = 212 s

Time = 5961

DILUPBiCGStab:  Solving for omega, Initial residual = 9.82522e-11, Final residual = 9.82522e-11, No Iterations 0
ExecutionTime = 181.18 s  ClockTime = 212 s

Time = 5962

DILUPBiCGStab:  Solving for omega, Initial residual = 9.82522e-11, Final residual = 9.82522e-11, No Iterations 0
ExecutionTime = 181.21 s  ClockTime = 212 s

Time = 5963

DILUPBiCGStab:  Solving for omega, Initial residual = 9.82522e-11, Final residual = 9.82522e-11, No Iterations 0
ExecutionTime = 181.24 s  ClockTime = 212 s

Time = 5964

DILUPBiCGStab:  Solving for omega, Initial residual = 9.82522e-11, Final residual = 9.82522e-11, No Iterations 0
ExecutionTime = 181.27 s  ClockTime = 212 s

Time = 5965

DILUPBiCGStab:  Solving for omega, Initial residual = 9.82522e-11, Final residual = 9.82522e-11, No Iterations 0
ExecutionTime = 181.3 s  ClockTime = 212 s

Time = 5966

DILUPBiCGStab:  Solving for omega, Initial residual = 9.82522e-11, Final residual = 9.82522e-11, No Iterations 0
ExecutionTime = 181.33 s  ClockTime = 212 s

Time = 5967

DILUPBiCGStab:  Solving for omega, Initial residual = 9.82522e-11, Final residual = 9.82522e-11, No Iterations 0
ExecutionTime = 181.35 s  ClockTime = 212 s

Time = 5968

DILUPBiCGStab:  Solving for omega, Initial residual = 9.82522e-11, Final residual = 9.82522e-11, No Iterations 0
ExecutionTime = 181.38 s  ClockTime = 213 s

Time = 5969

DILUPBiCGStab:  Solving for omega, Initial residual = 9.82522e-11, Final residual = 9.82522e-11, No Iterations 0
ExecutionTime = 181.41 s  ClockTime = 213 s

Time = 5970

DILUPBiCGStab:  Solving for omega, Initial residual = 9.82522e-11, Final residual = 9.82522e-11, No Iterations 0
ExecutionTime = 181.44 s  ClockTime = 213 s

Time = 5971

DILUPBiCGStab:  Solving for omega, Initial residual = 9.82522e-11, Final residual = 9.82522e-11, No Iterations 0
ExecutionTime = 181.47 s  ClockTime = 213 s

Time = 5972

DILUPBiCGStab:  Solving for omega, Initial residual = 9.82522e-11, Final residual = 9.82522e-11, No Iterations 0
ExecutionTime = 181.5 s  ClockTime = 213 s

Time = 5973

DILUPBiCGStab:  Solving for omega, Initial residual = 9.82522e-11, Final residual = 9.82522e-11, No Iterations 0
ExecutionTime = 181.53 s  ClockTime = 213 s

Time = 5974

DILUPBiCGStab:  Solving for omega, Initial residual = 9.82522e-11, Final residual = 9.82522e-11, No Iterations 0
ExecutionTime = 181.57 s  ClockTime = 213 s

Time = 5975

DILUPBiCGStab:  Solving for omega, Initial residual = 9.82522e-11, Final residual = 9.82522e-11, No Iterations 0
ExecutionTime = 181.6 s  ClockTime = 213 s

Time = 5976

DILUPBiCGStab:  Solving for omega, Initial residual = 9.82522e-11, Final residual = 9.82522e-11, No Iterations 0
ExecutionTime = 181.64 s  ClockTime = 213 s

Time = 5977

DILUPBiCGStab:  Solving for omega, Initial residual = 9.82522e-11, Final residual = 9.82522e-11, No Iterations 0
ExecutionTime = 181.68 s  ClockTime = 213 s

Time = 5978

DILUPBiCGStab:  Solving for omega, Initial residual = 9.82522e-11, Final residual = 9.82522e-11, No Iterations 0
ExecutionTime = 181.71 s  ClockTime = 213 s

Time = 5979

DILUPBiCGStab:  Solving for omega, Initial residual = 9.82522e-11, Final residual = 9.82522e-11, No Iterations 0
ExecutionTime = 181.75 s  ClockTime = 213 s

Time = 5980

DILUPBiCGStab:  Solving for omega, Initial residual = 9.82522e-11, Final residual = 9.82522e-11, No Iterations 0
ExecutionTime = 181.78 s  ClockTime = 213 s

Time = 5981

DILUPBiCGStab:  Solving for omega, Initial residual = 9.82522e-11, Final residual = 9.82522e-11, No Iterations 0
ExecutionTime = 181.8 s  ClockTime = 213 s

Time = 5982

DILUPBiCGStab:  Solving for omega, Initial residual = 9.82522e-11, Final residual = 9.82522e-11, No Iterations 0
ExecutionTime = 181.83 s  ClockTime = 213 s

Time = 5983

DILUPBiCGStab:  Solving for omega, Initial residual = 9.82522e-11, Final residual = 9.82522e-11, No Iterations 0
ExecutionTime = 181.85 s  ClockTime = 213 s

Time = 5984

DILUPBiCGStab:  Solving for omega, Initial residual = 9.82522e-11, Final residual = 9.82522e-11, No Iterations 0
ExecutionTime = 181.88 s  ClockTime = 213 s

Time = 5985

DILUPBiCGStab:  Solving for omega, Initial residual = 9.82522e-11, Final residual = 9.82522e-11, No Iterations 0
ExecutionTime = 181.91 s  ClockTime = 213 s

Time = 5986

DILUPBiCGStab:  Solving for omega, Initial residual = 9.82522e-11, Final residual = 9.82522e-11, No Iterations 0
ExecutionTime = 181.94 s  ClockTime = 213 s

Time = 5987

DILUPBiCGStab:  Solving for omega, Initial residual = 9.82522e-11, Final residual = 9.82522e-11, No Iterations 0
ExecutionTime = 181.96 s  ClockTime = 213 s

Time = 5988

DILUPBiCGStab:  Solving for omega, Initial residual = 9.82522e-11, Final residual = 9.82522e-11, No Iterations 0
ExecutionTime = 181.98 s  ClockTime = 213 s

Time = 5989

DILUPBiCGStab:  Solving for omega, Initial residual = 9.82522e-11, Final residual = 9.82522e-11, No Iterations 0
ExecutionTime = 182.01 s  ClockTime = 213 s

Time = 5990

DILUPBiCGStab:  Solving for omega, Initial residual = 9.82522e-11, Final residual = 9.82522e-11, No Iterations 0
ExecutionTime = 182.04 s  ClockTime = 213 s

Time = 5991

DILUPBiCGStab:  Solving for omega, Initial residual = 9.82522e-11, Final residual = 9.82522e-11, No Iterations 0
ExecutionTime = 182.06 s  ClockTime = 213 s

Time = 5992

DILUPBiCGStab:  Solving for omega, Initial residual = 9.82522e-11, Final residual = 9.82522e-11, No Iterations 0
ExecutionTime = 182.09 s  ClockTime = 213 s

Time = 5993

DILUPBiCGStab:  Solving for omega, Initial residual = 9.82522e-11, Final residual = 9.82522e-11, No Iterations 0
ExecutionTime = 182.11 s  ClockTime = 213 s

Time = 5994

DILUPBiCGStab:  Solving for omega, Initial residual = 9.82522e-11, Final residual = 9.82522e-11, No Iterations 0
ExecutionTime = 182.15 s  ClockTime = 213 s

Time = 5995

DILUPBiCGStab:  Solving for omega, Initial residual = 9.82522e-11, Final residual = 9.82522e-11, No Iterations 0
ExecutionTime = 182.18 s  ClockTime = 214 s

Time = 5996

DILUPBiCGStab:  Solving for omega, Initial residual = 9.82522e-11, Final residual = 9.82522e-11, No Iterations 0
ExecutionTime = 182.22 s  ClockTime = 214 s

Time = 5997

DILUPBiCGStab:  Solving for omega, Initial residual = 9.82522e-11, Final residual = 9.82522e-11, No Iterations 0
ExecutionTime = 182.25 s  ClockTime = 214 s

Time = 5998

DILUPBiCGStab:  Solving for omega, Initial residual = 9.82522e-11, Final residual = 9.82522e-11, No Iterations 0
ExecutionTime = 182.28 s  ClockTime = 214 s

Time = 5999

DILUPBiCGStab:  Solving for omega, Initial residual = 9.82522e-11, Final residual = 9.82522e-11, No Iterations 0
ExecutionTime = 182.31 s  ClockTime = 214 s

Time = 6000

DILUPBiCGStab:  Solving for omega, Initial residual = 9.82522e-11, Final residual = 9.82522e-11, No Iterations 0
ExecutionTime = 182.48 s  ClockTime = 215 s

yPlus yPlus1 write:
    writing field yPlus
    patch bottom y+ : min = 0.0459733, max = 2.45718, average = 0.612293
End

Finalising parallel run
