/*---------------------------------------------------------------------------*\
| =========                 |                                                 |
| \\      /  F ield         | OpenFOAM: The Open Source CFD Toolbox           |
|  \\    /   O peration     | Version:  2506                                  |
|   \\  /    A nd           | Website:  www.openfoam.com                      |
|    \\/     M anipulation  |                                                 |
\*---------------------------------------------------------------------------*/
Build  : _615aae61-20250627 OPENFOAM=2506 version=2506
Arch   : "LSB;label=32;scalar=64"
Exec   : frozenFoam -parallel
Date   : Oct 09 2025
Time   : 08:06:37
Host   : 69da72c700c0
PID    : 913
I/O    : uncollated
Case   : /home/openfoam/OpenFOAM/openfoam-v2506/run/h42_frozensparse
nProcs : 4
Hosts  :
(
    (69da72c700c0 4)
)
Pstream initialized with:
    node communication : off [type=host] (4 ranks, 1 nodes)
    topology controls  : none
    consensus exchange : 0 (tuning: 0)
    exchange algorithm : 0
    commsType          : nonBlocking
    polling iterations : 0
trapFpe: Floating point exception trapping enabled (FOAM_SIGFPE).
fileModificationChecking : Monitoring run-time modified files using timeStampMaster (fileModificationSkew 5, maxFileModificationPolls 20)
allowSystemOperations : Allowing user-supplied system call operations

// * * * * * * * * * * * * * * * * * * * * * * * * * * * * * * * * * * * * * //
Create time

Create mesh for time = 0


SIMPLE: no convergence criteria found. Calculations will run for 1000 steps.

Reading field p

Reading field U

Reading/calculating face flux field phi

Selecting incompressible transport model Newtonian
Selecting turbulence model type RAS
Selecting RAS turbulence model frozenSST
Selecting patchDistMethod meshWave
RAS
{
    RASModel        frozenSST;
    turbulence      on;
    printCoeffs     on;
    alphaK1         0.85;
    alphaK2         1;
    alphaOmega1     0.5;
    alphaOmega2     0.856;
    gamma1          0.555556;
    gamma2          0.44;
    beta1           0.075;
    beta2           0.0828;
    betaStar        0.09;
    a1              0.31;
    b1              1;
    c1              10;
    F3              false;
    decayControl    false;
    kInf            0;
    omegaInf        0;
}

No MRF models present

No finite volume options present

Starting time loop

--> FOAM Warning : 
    From void Foam::timeControl::read(const Foam::dictionary&)
    in file db/functionObjects/timeControl/timeControl.C at line 131
    Reading "system/controlDict/functions/yPlus1" at line 55
    Found deprecated 'outputControl'
    Use 'writeControl' with 'writeInterval'
Time = 1

DILUPBiCGStab:  Solving for omega, Initial residual = 0.0256511, Final residual = 2.79425e-11, No Iterations 7
ExecutionTime = 0.49 s  ClockTime = 1 s

Time = 2

DILUPBiCGStab:  Solving for omega, Initial residual = 0.00356499, Final residual = 7.04108e-11, No Iterations 6
ExecutionTime = 0.52 s  ClockTime = 1 s

Time = 3

DILUPBiCGStab:  Solving for omega, Initial residual = 0.00267552, Final residual = 7.95608e-11, No Iterations 5
ExecutionTime = 0.56 s  ClockTime = 1 s

Time = 4

DILUPBiCGStab:  Solving for omega, Initial residual = 0.00128868, Final residual = 5.37458e-11, No Iterations 5
ExecutionTime = 0.59 s  ClockTime = 1 s

Time = 5

DILUPBiCGStab:  Solving for omega, Initial residual = 0.000802385, Final residual = 8.29515e-11, No Iterations 5
ExecutionTime = 0.63 s  ClockTime = 1 s

Time = 6

DILUPBiCGStab:  Solving for omega, Initial residual = 0.000434303, Final residual = 5.88962e-11, No Iterations 5
ExecutionTime = 0.66 s  ClockTime = 1 s

Time = 7

DILUPBiCGStab:  Solving for omega, Initial residual = 0.000254912, Final residual = 4.41265e-11, No Iterations 5
ExecutionTime = 0.69 s  ClockTime = 1 s

Time = 8

DILUPBiCGStab:  Solving for omega, Initial residual = 0.000143268, Final residual = 4.08896e-11, No Iterations 5
ExecutionTime = 0.73 s  ClockTime = 1 s

Time = 9

DILUPBiCGStab:  Solving for omega, Initial residual = 8.26938e-05, Final residual = 3.91281e-11, No Iterations 5
ExecutionTime = 0.76 s  ClockTime = 1 s

Time = 10

DILUPBiCGStab:  Solving for omega, Initial residual = 4.72147e-05, Final residual = 8.87846e-11, No Iterations 4
ExecutionTime = 0.81 s  ClockTime = 1 s

Time = 11

DILUPBiCGStab:  Solving for omega, Initial residual = 2.72611e-05, Final residual = 7.74711e-11, No Iterations 4
ExecutionTime = 0.85 s  ClockTime = 1 s

Time = 12

DILUPBiCGStab:  Solving for omega, Initial residual = 1.57876e-05, Final residual = 6.89242e-11, No Iterations 4
ExecutionTime = 0.88 s  ClockTime = 1 s

Time = 13

DILUPBiCGStab:  Solving for omega, Initial residual = 9.24498e-06, Final residual = 6.70882e-11, No Iterations 4
ExecutionTime = 0.91 s  ClockTime = 2 s

Time = 14

DILUPBiCGStab:  Solving for omega, Initial residual = 5.49532e-06, Final residual = 6.20523e-11, No Iterations 4
ExecutionTime = 0.94 s  ClockTime = 2 s

Time = 15

DILUPBiCGStab:  Solving for omega, Initial residual = 3.33758e-06, Final residual = 5.85672e-11, No Iterations 4
ExecutionTime = 0.98 s  ClockTime = 2 s

Time = 16

DILUPBiCGStab:  Solving for omega, Initial residual = 2.0939e-06, Final residual = 7.39304e-11, No Iterations 4
ExecutionTime = 1.01 s  ClockTime = 2 s

Time = 17

DILUPBiCGStab:  Solving for omega, Initial residual = 1.36865e-06, Final residual = 2.48428e-11, No Iterations 5
ExecutionTime = 1.04 s  ClockTime = 2 s

Time = 18

DILUPBiCGStab:  Solving for omega, Initial residual = 9.43156e-07, Final residual = 1.95791e-11, No Iterations 5
ExecutionTime = 1.08 s  ClockTime = 2 s

Time = 19

DILUPBiCGStab:  Solving for omega, Initial residual = 6.88079e-07, Final residual = 9.79846e-11, No Iterations 4
ExecutionTime = 1.12 s  ClockTime = 2 s

Time = 20

DILUPBiCGStab:  Solving for omega, Initial residual = 5.32376e-07, Final residual = 8.28987e-11, No Iterations 4
ExecutionTime = 1.15 s  ClockTime = 2 s

Time = 21

DILUPBiCGStab:  Solving for omega, Initial residual = 4.33694e-07, Final residual = 8.46583e-11, No Iterations 4
ExecutionTime = 1.19 s  ClockTime = 2 s

Time = 22

DILUPBiCGStab:  Solving for omega, Initial residual = 3.68795e-07, Final residual = 8.61108e-11, No Iterations 4
ExecutionTime = 1.23 s  ClockTime = 2 s

Time = 23

DILUPBiCGStab:  Solving for omega, Initial residual = 3.23726e-07, Final residual = 7.84765e-11, No Iterations 4
ExecutionTime = 1.27 s  ClockTime = 2 s

Time = 24

DILUPBiCGStab:  Solving for omega, Initial residual = 2.90823e-07, Final residual = 6.88286e-11, No Iterations 4
ExecutionTime = 1.31 s  ClockTime = 2 s

Time = 25

DILUPBiCGStab:  Solving for omega, Initial residual = 2.65382e-07, Final residual = 6.31921e-11, No Iterations 4
ExecutionTime = 1.34 s  ClockTime = 2 s

Time = 26

DILUPBiCGStab:  Solving for omega, Initial residual = 2.44852e-07, Final residual = 6.2862e-11, No Iterations 4
ExecutionTime = 1.36 s  ClockTime = 2 s

Time = 27

DILUPBiCGStab:  Solving for omega, Initial residual = 2.27567e-07, Final residual = 6.74105e-11, No Iterations 4
ExecutionTime = 1.39 s  ClockTime = 2 s

Time = 28

DILUPBiCGStab:  Solving for omega, Initial residual = 2.12647e-07, Final residual = 7.68793e-11, No Iterations 4
ExecutionTime = 1.43 s  ClockTime = 2 s

Time = 29

DILUPBiCGStab:  Solving for omega, Initial residual = 1.99435e-07, Final residual = 9.32716e-11, No Iterations 4
ExecutionTime = 1.46 s  ClockTime = 2 s

Time = 30

DILUPBiCGStab:  Solving for omega, Initial residual = 1.87619e-07, Final residual = 8.34419e-12, No Iterations 5
ExecutionTime = 1.49 s  ClockTime = 2 s

Time = 31

DILUPBiCGStab:  Solving for omega, Initial residual = 1.76894e-07, Final residual = 9.04634e-12, No Iterations 5
ExecutionTime = 1.52 s  ClockTime = 2 s

Time = 32

DILUPBiCGStab:  Solving for omega, Initial residual = 1.67132e-07, Final residual = 9.11818e-11, No Iterations 3
ExecutionTime = 1.56 s  ClockTime = 2 s

Time = 33

DILUPBiCGStab:  Solving for omega, Initial residual = 1.58163e-07, Final residual = 8.34813e-11, No Iterations 3
ExecutionTime = 1.59 s  ClockTime = 2 s

Time = 34

DILUPBiCGStab:  Solving for omega, Initial residual = 1.49914e-07, Final residual = 7.61373e-11, No Iterations 3
ExecutionTime = 1.62 s  ClockTime = 2 s

Time = 35

DILUPBiCGStab:  Solving for omega, Initial residual = 1.42287e-07, Final residual = 6.96563e-11, No Iterations 3
ExecutionTime = 1.65 s  ClockTime = 2 s

Time = 36

DILUPBiCGStab:  Solving for omega, Initial residual = 1.35239e-07, Final residual = 6.39424e-11, No Iterations 3
ExecutionTime = 1.68 s  ClockTime = 3 s

Time = 37

DILUPBiCGStab:  Solving for omega, Initial residual = 1.28697e-07, Final residual = 5.88346e-11, No Iterations 3
ExecutionTime = 1.72 s  ClockTime = 3 s

Time = 38

DILUPBiCGStab:  Solving for omega, Initial residual = 1.22619e-07, Final residual = 5.41872e-11, No Iterations 3
ExecutionTime = 1.75 s  ClockTime = 3 s

Time = 39

DILUPBiCGStab:  Solving for omega, Initial residual = 1.16961e-07, Final residual = 4.99401e-11, No Iterations 3
ExecutionTime = 1.78 s  ClockTime = 3 s

Time = 40

DILUPBiCGStab:  Solving for omega, Initial residual = 1.11683e-07, Final residual = 4.60401e-11, No Iterations 3
ExecutionTime = 1.81 s  ClockTime = 3 s

Time = 41

DILUPBiCGStab:  Solving for omega, Initial residual = 1.06749e-07, Final residual = 9.44662e-11, No Iterations 3
ExecutionTime = 1.84 s  ClockTime = 3 s

Time = 42

DILUPBiCGStab:  Solving for omega, Initial residual = 1.02121e-07, Final residual = 8.66896e-11, No Iterations 3
ExecutionTime = 1.87 s  ClockTime = 3 s

Time = 43

DILUPBiCGStab:  Solving for omega, Initial residual = 9.77772e-08, Final residual = 8.12314e-11, No Iterations 3
ExecutionTime = 1.9 s  ClockTime = 3 s

Time = 44

DILUPBiCGStab:  Solving for omega, Initial residual = 9.36887e-08, Final residual = 7.66986e-11, No Iterations 3
ExecutionTime = 1.92 s  ClockTime = 3 s

Time = 45

DILUPBiCGStab:  Solving for omega, Initial residual = 8.98317e-08, Final residual = 7.30077e-11, No Iterations 3
ExecutionTime = 1.96 s  ClockTime = 3 s

Time = 46

DILUPBiCGStab:  Solving for omega, Initial residual = 8.61853e-08, Final residual = 7.00357e-11, No Iterations 3
ExecutionTime = 1.99 s  ClockTime = 3 s

Time = 47

DILUPBiCGStab:  Solving for omega, Initial residual = 8.27268e-08, Final residual = 6.75189e-11, No Iterations 3
ExecutionTime = 2.02 s  ClockTime = 3 s

Time = 48

DILUPBiCGStab:  Solving for omega, Initial residual = 7.94362e-08, Final residual = 6.5289e-11, No Iterations 3
ExecutionTime = 2.05 s  ClockTime = 3 s

Time = 49

DILUPBiCGStab:  Solving for omega, Initial residual = 7.62905e-08, Final residual = 6.32097e-11, No Iterations 3
ExecutionTime = 2.08 s  ClockTime = 3 s

Time = 50

DILUPBiCGStab:  Solving for omega, Initial residual = 7.32751e-08, Final residual = 6.1214e-11, No Iterations 3
ExecutionTime = 2.11 s  ClockTime = 3 s

Time = 51

DILUPBiCGStab:  Solving for omega, Initial residual = 7.03748e-08, Final residual = 5.92724e-11, No Iterations 3
ExecutionTime = 2.14 s  ClockTime = 3 s

Time = 52

DILUPBiCGStab:  Solving for omega, Initial residual = 6.75766e-08, Final residual = 5.73617e-11, No Iterations 3
ExecutionTime = 2.17 s  ClockTime = 3 s

Time = 53

DILUPBiCGStab:  Solving for omega, Initial residual = 6.48749e-08, Final residual = 5.54578e-11, No Iterations 3
ExecutionTime = 2.2 s  ClockTime = 3 s

Time = 54

DILUPBiCGStab:  Solving for omega, Initial residual = 6.22662e-08, Final residual = 5.35439e-11, No Iterations 3
ExecutionTime = 2.23 s  ClockTime = 3 s

Time = 55

DILUPBiCGStab:  Solving for omega, Initial residual = 5.97479e-08, Final residual = 5.1602e-11, No Iterations 3
ExecutionTime = 2.26 s  ClockTime = 3 s

Time = 56

DILUPBiCGStab:  Solving for omega, Initial residual = 5.73173e-08, Final residual = 4.96238e-11, No Iterations 3
ExecutionTime = 2.28 s  ClockTime = 3 s

Time = 57

DILUPBiCGStab:  Solving for omega, Initial residual = 5.49728e-08, Final residual = 4.76121e-11, No Iterations 3
ExecutionTime = 2.31 s  ClockTime = 3 s

Time = 58

DILUPBiCGStab:  Solving for omega, Initial residual = 5.27135e-08, Final residual = 4.55696e-11, No Iterations 3
ExecutionTime = 2.35 s  ClockTime = 3 s

Time = 59

DILUPBiCGStab:  Solving for omega, Initial residual = 5.05369e-08, Final residual = 4.35098e-11, No Iterations 3
ExecutionTime = 2.37 s  ClockTime = 3 s

Time = 60

DILUPBiCGStab:  Solving for omega, Initial residual = 4.84418e-08, Final residual = 4.14459e-11, No Iterations 3
ExecutionTime = 2.4 s  ClockTime = 3 s

Time = 61

DILUPBiCGStab:  Solving for omega, Initial residual = 4.64281e-08, Final residual = 3.93954e-11, No Iterations 3
ExecutionTime = 2.43 s  ClockTime = 3 s

Time = 62

DILUPBiCGStab:  Solving for omega, Initial residual = 4.44935e-08, Final residual = 3.73733e-11, No Iterations 3
ExecutionTime = 2.45 s  ClockTime = 3 s

Time = 63

DILUPBiCGStab:  Solving for omega, Initial residual = 4.26371e-08, Final residual = 3.53926e-11, No Iterations 3
ExecutionTime = 2.48 s  ClockTime = 4 s

Time = 64

DILUPBiCGStab:  Solving for omega, Initial residual = 4.08577e-08, Final residual = 3.3465e-11, No Iterations 3
ExecutionTime = 2.51 s  ClockTime = 4 s

Time = 65

DILUPBiCGStab:  Solving for omega, Initial residual = 3.91536e-08, Final residual = 3.16018e-11, No Iterations 3
ExecutionTime = 2.56 s  ClockTime = 4 s

Time = 66

DILUPBiCGStab:  Solving for omega, Initial residual = 3.7523e-08, Final residual = 2.98129e-11, No Iterations 3
ExecutionTime = 2.59 s  ClockTime = 4 s

Time = 67

DILUPBiCGStab:  Solving for omega, Initial residual = 3.59642e-08, Final residual = 2.81042e-11, No Iterations 3
ExecutionTime = 2.62 s  ClockTime = 4 s

Time = 68

DILUPBiCGStab:  Solving for omega, Initial residual = 3.44758e-08, Final residual = 2.6477e-11, No Iterations 3
ExecutionTime = 2.64 s  ClockTime = 4 s

Time = 69

DILUPBiCGStab:  Solving for omega, Initial residual = 3.30548e-08, Final residual = 9.54767e-11, No Iterations 2
ExecutionTime = 2.67 s  ClockTime = 4 s

Time = 70

DILUPBiCGStab:  Solving for omega, Initial residual = 3.17062e-08, Final residual = 9.06252e-11, No Iterations 2
ExecutionTime = 2.7 s  ClockTime = 4 s

Time = 71

DILUPBiCGStab:  Solving for omega, Initial residual = 3.04192e-08, Final residual = 8.59195e-11, No Iterations 2
ExecutionTime = 2.73 s  ClockTime = 4 s

Time = 72

DILUPBiCGStab:  Solving for omega, Initial residual = 2.91922e-08, Final residual = 8.14871e-11, No Iterations 2
ExecutionTime = 2.76 s  ClockTime = 4 s

Time = 73

DILUPBiCGStab:  Solving for omega, Initial residual = 2.80226e-08, Final residual = 7.73271e-11, No Iterations 2
ExecutionTime = 2.79 s  ClockTime = 4 s

Time = 74

DILUPBiCGStab:  Solving for omega, Initial residual = 2.69085e-08, Final residual = 7.34287e-11, No Iterations 2
ExecutionTime = 2.83 s  ClockTime = 4 s

Time = 75

DILUPBiCGStab:  Solving for omega, Initial residual = 2.5847e-08, Final residual = 6.97764e-11, No Iterations 2
ExecutionTime = 2.86 s  ClockTime = 4 s

Time = 76

DILUPBiCGStab:  Solving for omega, Initial residual = 2.48361e-08, Final residual = 6.63555e-11, No Iterations 2
ExecutionTime = 2.89 s  ClockTime = 4 s

Time = 77

DILUPBiCGStab:  Solving for omega, Initial residual = 2.38738e-08, Final residual = 6.3151e-11, No Iterations 2
ExecutionTime = 2.93 s  ClockTime = 4 s

Time = 78

DILUPBiCGStab:  Solving for omega, Initial residual = 2.29572e-08, Final residual = 6.01487e-11, No Iterations 2
ExecutionTime = 2.96 s  ClockTime = 4 s

Time = 79

DILUPBiCGStab:  Solving for omega, Initial residual = 2.20843e-08, Final residual = 5.73342e-11, No Iterations 2
ExecutionTime = 3 s  ClockTime = 4 s

Time = 80

DILUPBiCGStab:  Solving for omega, Initial residual = 2.12536e-08, Final residual = 5.46969e-11, No Iterations 2
ExecutionTime = 3.04 s  ClockTime = 4 s

Time = 81

DILUPBiCGStab:  Solving for omega, Initial residual = 2.04618e-08, Final residual = 5.22219e-11, No Iterations 2
ExecutionTime = 3.07 s  ClockTime = 4 s

Time = 82

DILUPBiCGStab:  Solving for omega, Initial residual = 1.97079e-08, Final residual = 4.98973e-11, No Iterations 2
ExecutionTime = 3.11 s  ClockTime = 4 s

Time = 83

DILUPBiCGStab:  Solving for omega, Initial residual = 1.89896e-08, Final residual = 4.77111e-11, No Iterations 2
ExecutionTime = 3.14 s  ClockTime = 4 s

Time = 84

DILUPBiCGStab:  Solving for omega, Initial residual = 1.83049e-08, Final residual = 4.56524e-11, No Iterations 2
ExecutionTime = 3.18 s  ClockTime = 4 s

Time = 85

DILUPBiCGStab:  Solving for omega, Initial residual = 1.76526e-08, Final residual = 4.37113e-11, No Iterations 2
ExecutionTime = 3.27 s  ClockTime = 4 s

Time = 86

DILUPBiCGStab:  Solving for omega, Initial residual = 1.70305e-08, Final residual = 4.18806e-11, No Iterations 2
ExecutionTime = 3.31 s  ClockTime = 5 s

Time = 87

DILUPBiCGStab:  Solving for omega, Initial residual = 1.64373e-08, Final residual = 4.0151e-11, No Iterations 2
ExecutionTime = 3.34 s  ClockTime = 5 s

Time = 88

DILUPBiCGStab:  Solving for omega, Initial residual = 1.58717e-08, Final residual = 3.85145e-11, No Iterations 2
ExecutionTime = 3.36 s  ClockTime = 5 s

Time = 89

DILUPBiCGStab:  Solving for omega, Initial residual = 1.53319e-08, Final residual = 3.69643e-11, No Iterations 2
ExecutionTime = 3.39 s  ClockTime = 5 s

Time = 90

DILUPBiCGStab:  Solving for omega, Initial residual = 1.48169e-08, Final residual = 9.6815e-11, No Iterations 2
ExecutionTime = 3.41 s  ClockTime = 5 s

Time = 91

DILUPBiCGStab:  Solving for omega, Initial residual = 1.4327e-08, Final residual = 9.02459e-11, No Iterations 2
ExecutionTime = 3.44 s  ClockTime = 5 s

Time = 92

DILUPBiCGStab:  Solving for omega, Initial residual = 1.38588e-08, Final residual = 8.66019e-11, No Iterations 2
ExecutionTime = 3.47 s  ClockTime = 5 s

Time = 93

DILUPBiCGStab:  Solving for omega, Initial residual = 1.34115e-08, Final residual = 8.27343e-11, No Iterations 2
ExecutionTime = 3.49 s  ClockTime = 5 s

Time = 94

DILUPBiCGStab:  Solving for omega, Initial residual = 1.2984e-08, Final residual = 7.92213e-11, No Iterations 2
ExecutionTime = 3.53 s  ClockTime = 5 s

Time = 95

DILUPBiCGStab:  Solving for omega, Initial residual = 1.25754e-08, Final residual = 7.5775e-11, No Iterations 2
ExecutionTime = 3.55 s  ClockTime = 5 s

Time = 96

DILUPBiCGStab:  Solving for omega, Initial residual = 1.21846e-08, Final residual = 7.25853e-11, No Iterations 2
ExecutionTime = 3.58 s  ClockTime = 5 s

Time = 97

DILUPBiCGStab:  Solving for omega, Initial residual = 1.18108e-08, Final residual = 6.94726e-11, No Iterations 2
ExecutionTime = 3.6 s  ClockTime = 5 s

Time = 98

DILUPBiCGStab:  Solving for omega, Initial residual = 1.14533e-08, Final residual = 6.65705e-11, No Iterations 2
ExecutionTime = 3.63 s  ClockTime = 5 s

Time = 99

DILUPBiCGStab:  Solving for omega, Initial residual = 1.1111e-08, Final residual = 6.37577e-11, No Iterations 2
ExecutionTime = 3.67 s  ClockTime = 5 s

Time = 100

DILUPBiCGStab:  Solving for omega, Initial residual = 1.07835e-08, Final residual = 6.11269e-11, No Iterations 2
ExecutionTime = 3.7 s  ClockTime = 5 s

Time = 101

DILUPBiCGStab:  Solving for omega, Initial residual = 1.04698e-08, Final residual = 5.85871e-11, No Iterations 2
ExecutionTime = 3.72 s  ClockTime = 5 s

Time = 102

DILUPBiCGStab:  Solving for omega, Initial residual = 1.01693e-08, Final residual = 5.62036e-11, No Iterations 2
ExecutionTime = 3.75 s  ClockTime = 5 s

Time = 103

DILUPBiCGStab:  Solving for omega, Initial residual = 9.88145e-09, Final residual = 5.39132e-11, No Iterations 2
ExecutionTime = 3.77 s  ClockTime = 5 s

Time = 104

DILUPBiCGStab:  Solving for omega, Initial residual = 9.60546e-09, Final residual = 5.17624e-11, No Iterations 2
ExecutionTime = 3.8 s  ClockTime = 5 s

Time = 105

DILUPBiCGStab:  Solving for omega, Initial residual = 9.34081e-09, Final residual = 4.97058e-11, No Iterations 2
ExecutionTime = 3.83 s  ClockTime = 5 s

Time = 106

DILUPBiCGStab:  Solving for omega, Initial residual = 9.08693e-09, Final residual = 4.77762e-11, No Iterations 2
ExecutionTime = 3.86 s  ClockTime = 5 s

Time = 107

DILUPBiCGStab:  Solving for omega, Initial residual = 8.84328e-09, Final residual = 4.59358e-11, No Iterations 2
ExecutionTime = 3.89 s  ClockTime = 5 s

Time = 108

DILUPBiCGStab:  Solving for omega, Initial residual = 8.60928e-09, Final residual = 4.42108e-11, No Iterations 2
ExecutionTime = 3.91 s  ClockTime = 5 s

Time = 109

DILUPBiCGStab:  Solving for omega, Initial residual = 8.38439e-09, Final residual = 4.25712e-11, No Iterations 2
ExecutionTime = 3.94 s  ClockTime = 5 s

Time = 110

DILUPBiCGStab:  Solving for omega, Initial residual = 8.16807e-09, Final residual = 4.10382e-11, No Iterations 2
ExecutionTime = 3.97 s  ClockTime = 5 s

Time = 111

DILUPBiCGStab:  Solving for omega, Initial residual = 7.95978e-09, Final residual = 3.95823e-11, No Iterations 2
ExecutionTime = 3.99 s  ClockTime = 5 s

Time = 112

DILUPBiCGStab:  Solving for omega, Initial residual = 7.75896e-09, Final residual = 3.82196e-11, No Iterations 2
ExecutionTime = 4.02 s  ClockTime = 6 s

Time = 113

DILUPBiCGStab:  Solving for omega, Initial residual = 7.5651e-09, Final residual = 3.69241e-11, No Iterations 2
ExecutionTime = 4.04 s  ClockTime = 6 s

Time = 114

DILUPBiCGStab:  Solving for omega, Initial residual = 7.37781e-09, Final residual = 3.57141e-11, No Iterations 2
ExecutionTime = 4.07 s  ClockTime = 6 s

Time = 115

DILUPBiCGStab:  Solving for omega, Initial residual = 7.19671e-09, Final residual = 3.45696e-11, No Iterations 2
ExecutionTime = 4.11 s  ClockTime = 6 s

Time = 116

DILUPBiCGStab:  Solving for omega, Initial residual = 7.02149e-09, Final residual = 3.35025e-11, No Iterations 2
ExecutionTime = 4.13 s  ClockTime = 6 s

Time = 117

DILUPBiCGStab:  Solving for omega, Initial residual = 6.85185e-09, Final residual = 3.24897e-11, No Iterations 2
ExecutionTime = 4.16 s  ClockTime = 6 s

Time = 118

DILUPBiCGStab:  Solving for omega, Initial residual = 6.6875e-09, Final residual = 3.15321e-11, No Iterations 2
ExecutionTime = 4.19 s  ClockTime = 6 s

Time = 119

DILUPBiCGStab:  Solving for omega, Initial residual = 6.52817e-09, Final residual = 3.05885e-11, No Iterations 2
ExecutionTime = 4.22 s  ClockTime = 6 s

Time = 120

DILUPBiCGStab:  Solving for omega, Initial residual = 6.3736e-09, Final residual = 2.96476e-11, No Iterations 2
ExecutionTime = 4.25 s  ClockTime = 6 s

Time = 121

DILUPBiCGStab:  Solving for omega, Initial residual = 6.2236e-09, Final residual = 2.86844e-11, No Iterations 2
ExecutionTime = 4.29 s  ClockTime = 6 s

Time = 122

DILUPBiCGStab:  Solving for omega, Initial residual = 6.078e-09, Final residual = 2.77166e-11, No Iterations 2
ExecutionTime = 4.32 s  ClockTime = 6 s

Time = 123

DILUPBiCGStab:  Solving for omega, Initial residual = 5.93659e-09, Final residual = 2.67412e-11, No Iterations 2
ExecutionTime = 4.35 s  ClockTime = 6 s

Time = 124

DILUPBiCGStab:  Solving for omega, Initial residual = 5.79925e-09, Final residual = 2.5785e-11, No Iterations 2
ExecutionTime = 4.37 s  ClockTime = 6 s

Time = 125

DILUPBiCGStab:  Solving for omega, Initial residual = 5.66579e-09, Final residual = 2.48444e-11, No Iterations 2
ExecutionTime = 4.4 s  ClockTime = 6 s

Time = 126

DILUPBiCGStab:  Solving for omega, Initial residual = 5.53611e-09, Final residual = 9.7176e-11, No Iterations 1
ExecutionTime = 4.43 s  ClockTime = 6 s

Time = 127

DILUPBiCGStab:  Solving for omega, Initial residual = 5.41147e-09, Final residual = 9.15482e-11, No Iterations 1
ExecutionTime = 4.45 s  ClockTime = 6 s

Time = 128

DILUPBiCGStab:  Solving for omega, Initial residual = 5.29056e-09, Final residual = 8.84723e-11, No Iterations 1
ExecutionTime = 4.48 s  ClockTime = 6 s

Time = 129

DILUPBiCGStab:  Solving for omega, Initial residual = 5.17312e-09, Final residual = 8.56843e-11, No Iterations 1
ExecutionTime = 4.5 s  ClockTime = 6 s

Time = 130

DILUPBiCGStab:  Solving for omega, Initial residual = 5.05871e-09, Final residual = 8.30592e-11, No Iterations 1
ExecutionTime = 4.53 s  ClockTime = 6 s

Time = 131

DILUPBiCGStab:  Solving for omega, Initial residual = 4.94724e-09, Final residual = 8.05681e-11, No Iterations 1
ExecutionTime = 4.55 s  ClockTime = 6 s

Time = 132

DILUPBiCGStab:  Solving for omega, Initial residual = 4.83861e-09, Final residual = 7.81841e-11, No Iterations 1
ExecutionTime = 4.59 s  ClockTime = 6 s

Time = 133

DILUPBiCGStab:  Solving for omega, Initial residual = 4.73272e-09, Final residual = 7.59009e-11, No Iterations 1
ExecutionTime = 4.62 s  ClockTime = 6 s

Time = 134

DILUPBiCGStab:  Solving for omega, Initial residual = 4.62948e-09, Final residual = 7.37115e-11, No Iterations 1
ExecutionTime = 4.65 s  ClockTime = 6 s

Time = 135

DILUPBiCGStab:  Solving for omega, Initial residual = 4.52881e-09, Final residual = 7.16097e-11, No Iterations 1
ExecutionTime = 4.68 s  ClockTime = 6 s

Time = 136

DILUPBiCGStab:  Solving for omega, Initial residual = 4.43061e-09, Final residual = 6.95907e-11, No Iterations 1
ExecutionTime = 4.71 s  ClockTime = 6 s

Time = 137

DILUPBiCGStab:  Solving for omega, Initial residual = 4.33481e-09, Final residual = 6.76499e-11, No Iterations 1
ExecutionTime = 4.74 s  ClockTime = 6 s

Time = 138

DILUPBiCGStab:  Solving for omega, Initial residual = 4.24134e-09, Final residual = 6.57833e-11, No Iterations 1
ExecutionTime = 4.76 s  ClockTime = 7 s

Time = 139

DILUPBiCGStab:  Solving for omega, Initial residual = 4.15012e-09, Final residual = 6.39873e-11, No Iterations 1
ExecutionTime = 4.8 s  ClockTime = 7 s

Time = 140

DILUPBiCGStab:  Solving for omega, Initial residual = 4.06109e-09, Final residual = 6.2259e-11, No Iterations 1
ExecutionTime = 4.82 s  ClockTime = 7 s

Time = 141

DILUPBiCGStab:  Solving for omega, Initial residual = 3.97417e-09, Final residual = 6.05964e-11, No Iterations 1
ExecutionTime = 4.85 s  ClockTime = 7 s

Time = 142

DILUPBiCGStab:  Solving for omega, Initial residual = 3.88931e-09, Final residual = 5.89953e-11, No Iterations 1
ExecutionTime = 4.88 s  ClockTime = 7 s

Time = 143

DILUPBiCGStab:  Solving for omega, Initial residual = 3.80645e-09, Final residual = 5.74529e-11, No Iterations 1
ExecutionTime = 4.91 s  ClockTime = 7 s

Time = 144

DILUPBiCGStab:  Solving for omega, Initial residual = 3.72552e-09, Final residual = 5.59667e-11, No Iterations 1
ExecutionTime = 4.93 s  ClockTime = 7 s

Time = 145

DILUPBiCGStab:  Solving for omega, Initial residual = 3.64647e-09, Final residual = 5.45345e-11, No Iterations 1
ExecutionTime = 4.96 s  ClockTime = 7 s

Time = 146

DILUPBiCGStab:  Solving for omega, Initial residual = 3.56924e-09, Final residual = 5.31537e-11, No Iterations 1
ExecutionTime = 4.99 s  ClockTime = 7 s

Time = 147

DILUPBiCGStab:  Solving for omega, Initial residual = 3.49379e-09, Final residual = 5.18222e-11, No Iterations 1
ExecutionTime = 5.01 s  ClockTime = 7 s

Time = 148

DILUPBiCGStab:  Solving for omega, Initial residual = 3.42006e-09, Final residual = 5.05378e-11, No Iterations 1
ExecutionTime = 5.04 s  ClockTime = 7 s

Time = 149

DILUPBiCGStab:  Solving for omega, Initial residual = 3.348e-09, Final residual = 4.92982e-11, No Iterations 1
ExecutionTime = 5.08 s  ClockTime = 7 s

Time = 150

DILUPBiCGStab:  Solving for omega, Initial residual = 3.27756e-09, Final residual = 4.81018e-11, No Iterations 1
ExecutionTime = 5.12 s  ClockTime = 7 s

Time = 151

DILUPBiCGStab:  Solving for omega, Initial residual = 3.20871e-09, Final residual = 4.69463e-11, No Iterations 1
ExecutionTime = 5.16 s  ClockTime = 7 s

Time = 152

DILUPBiCGStab:  Solving for omega, Initial residual = 3.1414e-09, Final residual = 4.58302e-11, No Iterations 1
ExecutionTime = 5.2 s  ClockTime = 7 s

Time = 153

DILUPBiCGStab:  Solving for omega, Initial residual = 3.07559e-09, Final residual = 4.47515e-11, No Iterations 1
ExecutionTime = 5.24 s  ClockTime = 7 s

Time = 154

DILUPBiCGStab:  Solving for omega, Initial residual = 3.01123e-09, Final residual = 4.37087e-11, No Iterations 1
ExecutionTime = 5.27 s  ClockTime = 7 s

Time = 155

DILUPBiCGStab:  Solving for omega, Initial residual = 2.94828e-09, Final residual = 4.27001e-11, No Iterations 1
ExecutionTime = 5.32 s  ClockTime = 7 s

Time = 156

DILUPBiCGStab:  Solving for omega, Initial residual = 2.88672e-09, Final residual = 4.1724e-11, No Iterations 1
ExecutionTime = 5.35 s  ClockTime = 7 s

Time = 157

DILUPBiCGStab:  Solving for omega, Initial residual = 2.82651e-09, Final residual = 4.0779e-11, No Iterations 1
ExecutionTime = 5.39 s  ClockTime = 7 s

Time = 158

DILUPBiCGStab:  Solving for omega, Initial residual = 2.7676e-09, Final residual = 3.98635e-11, No Iterations 1
ExecutionTime = 5.42 s  ClockTime = 7 s

Time = 159

DILUPBiCGStab:  Solving for omega, Initial residual = 2.70997e-09, Final residual = 3.89763e-11, No Iterations 1
ExecutionTime = 5.45 s  ClockTime = 7 s

Time = 160

DILUPBiCGStab:  Solving for omega, Initial residual = 2.65359e-09, Final residual = 3.81161e-11, No Iterations 1
ExecutionTime = 5.48 s  ClockTime = 7 s

Time = 161

DILUPBiCGStab:  Solving for omega, Initial residual = 2.59842e-09, Final residual = 3.72817e-11, No Iterations 1
ExecutionTime = 5.53 s  ClockTime = 7 s

Time = 162

DILUPBiCGStab:  Solving for omega, Initial residual = 2.54443e-09, Final residual = 3.64718e-11, No Iterations 1
ExecutionTime = 5.56 s  ClockTime = 7 s

Time = 163

DILUPBiCGStab:  Solving for omega, Initial residual = 2.4916e-09, Final residual = 3.56854e-11, No Iterations 1
ExecutionTime = 5.59 s  ClockTime = 7 s

Time = 164

DILUPBiCGStab:  Solving for omega, Initial residual = 2.4399e-09, Final residual = 3.49213e-11, No Iterations 1
ExecutionTime = 5.63 s  ClockTime = 8 s

Time = 165

DILUPBiCGStab:  Solving for omega, Initial residual = 2.38929e-09, Final residual = 3.41787e-11, No Iterations 1
ExecutionTime = 5.66 s  ClockTime = 8 s

Time = 166

DILUPBiCGStab:  Solving for omega, Initial residual = 2.33976e-09, Final residual = 3.34567e-11, No Iterations 1
ExecutionTime = 5.7 s  ClockTime = 8 s

Time = 167

DILUPBiCGStab:  Solving for omega, Initial residual = 2.29128e-09, Final residual = 3.27542e-11, No Iterations 1
ExecutionTime = 5.73 s  ClockTime = 8 s

Time = 168

DILUPBiCGStab:  Solving for omega, Initial residual = 2.24381e-09, Final residual = 3.20706e-11, No Iterations 1
ExecutionTime = 5.76 s  ClockTime = 8 s

Time = 169

DILUPBiCGStab:  Solving for omega, Initial residual = 2.19735e-09, Final residual = 3.14051e-11, No Iterations 1
ExecutionTime = 5.79 s  ClockTime = 8 s

Time = 170

DILUPBiCGStab:  Solving for omega, Initial residual = 2.15187e-09, Final residual = 3.07569e-11, No Iterations 1
ExecutionTime = 5.83 s  ClockTime = 8 s

Time = 171

DILUPBiCGStab:  Solving for omega, Initial residual = 2.10734e-09, Final residual = 3.01253e-11, No Iterations 1
ExecutionTime = 5.87 s  ClockTime = 8 s

Time = 172

DILUPBiCGStab:  Solving for omega, Initial residual = 2.06375e-09, Final residual = 2.95096e-11, No Iterations 1
ExecutionTime = 5.9 s  ClockTime = 8 s

Time = 173

DILUPBiCGStab:  Solving for omega, Initial residual = 2.02106e-09, Final residual = 2.89094e-11, No Iterations 1
ExecutionTime = 5.93 s  ClockTime = 8 s

Time = 174

DILUPBiCGStab:  Solving for omega, Initial residual = 1.97927e-09, Final residual = 2.83239e-11, No Iterations 1
ExecutionTime = 5.96 s  ClockTime = 8 s

Time = 175

DILUPBiCGStab:  Solving for omega, Initial residual = 1.93835e-09, Final residual = 2.77527e-11, No Iterations 1
ExecutionTime = 5.99 s  ClockTime = 8 s

Time = 176

DILUPBiCGStab:  Solving for omega, Initial residual = 1.89829e-09, Final residual = 2.71952e-11, No Iterations 1
ExecutionTime = 6.02 s  ClockTime = 8 s

Time = 177

DILUPBiCGStab:  Solving for omega, Initial residual = 1.85905e-09, Final residual = 2.66509e-11, No Iterations 1
ExecutionTime = 6.05 s  ClockTime = 8 s

Time = 178

DILUPBiCGStab:  Solving for omega, Initial residual = 1.82064e-09, Final residual = 2.61193e-11, No Iterations 1
ExecutionTime = 6.08 s  ClockTime = 8 s

Time = 179

DILUPBiCGStab:  Solving for omega, Initial residual = 1.78302e-09, Final residual = 2.56001e-11, No Iterations 1
ExecutionTime = 6.11 s  ClockTime = 8 s

Time = 180

DILUPBiCGStab:  Solving for omega, Initial residual = 1.74618e-09, Final residual = 2.50928e-11, No Iterations 1
ExecutionTime = 6.15 s  ClockTime = 8 s

Time = 181

DILUPBiCGStab:  Solving for omega, Initial residual = 1.7101e-09, Final residual = 2.4597e-11, No Iterations 1
ExecutionTime = 6.19 s  ClockTime = 8 s

Time = 182

DILUPBiCGStab:  Solving for omega, Initial residual = 1.67478e-09, Final residual = 2.41124e-11, No Iterations 1
ExecutionTime = 6.22 s  ClockTime = 8 s

Time = 183

DILUPBiCGStab:  Solving for omega, Initial residual = 1.64018e-09, Final residual = 2.36385e-11, No Iterations 1
ExecutionTime = 6.25 s  ClockTime = 8 s

Time = 184

DILUPBiCGStab:  Solving for omega, Initial residual = 1.6063e-09, Final residual = 2.31751e-11, No Iterations 1
ExecutionTime = 6.29 s  ClockTime = 8 s

Time = 185

DILUPBiCGStab:  Solving for omega, Initial residual = 1.57312e-09, Final residual = 2.27219e-11, No Iterations 1
ExecutionTime = 6.32 s  ClockTime = 8 s

Time = 186

DILUPBiCGStab:  Solving for omega, Initial residual = 1.54063e-09, Final residual = 2.22785e-11, No Iterations 1
ExecutionTime = 6.35 s  ClockTime = 8 s

Time = 187

DILUPBiCGStab:  Solving for omega, Initial residual = 1.5088e-09, Final residual = 2.18447e-11, No Iterations 1
ExecutionTime = 6.39 s  ClockTime = 8 s

Time = 188

DILUPBiCGStab:  Solving for omega, Initial residual = 1.47764e-09, Final residual = 2.14201e-11, No Iterations 1
ExecutionTime = 6.42 s  ClockTime = 8 s

Time = 189

DILUPBiCGStab:  Solving for omega, Initial residual = 1.44712e-09, Final residual = 2.10045e-11, No Iterations 1
ExecutionTime = 6.45 s  ClockTime = 8 s

Time = 190

DILUPBiCGStab:  Solving for omega, Initial residual = 1.41722e-09, Final residual = 2.05977e-11, No Iterations 1
ExecutionTime = 6.48 s  ClockTime = 8 s

Time = 191

DILUPBiCGStab:  Solving for omega, Initial residual = 1.38795e-09, Final residual = 2.01994e-11, No Iterations 1
ExecutionTime = 6.52 s  ClockTime = 9 s

Time = 192

DILUPBiCGStab:  Solving for omega, Initial residual = 1.35928e-09, Final residual = 1.98093e-11, No Iterations 1
ExecutionTime = 6.55 s  ClockTime = 9 s

Time = 193

DILUPBiCGStab:  Solving for omega, Initial residual = 1.3312e-09, Final residual = 1.94274e-11, No Iterations 1
ExecutionTime = 6.59 s  ClockTime = 9 s

Time = 194

DILUPBiCGStab:  Solving for omega, Initial residual = 1.3037e-09, Final residual = 1.90533e-11, No Iterations 1
ExecutionTime = 6.62 s  ClockTime = 9 s

Time = 195

DILUPBiCGStab:  Solving for omega, Initial residual = 1.27676e-09, Final residual = 1.86869e-11, No Iterations 1
ExecutionTime = 6.66 s  ClockTime = 9 s

Time = 196

DILUPBiCGStab:  Solving for omega, Initial residual = 1.25039e-09, Final residual = 1.83281e-11, No Iterations 1
ExecutionTime = 6.69 s  ClockTime = 9 s

Time = 197

DILUPBiCGStab:  Solving for omega, Initial residual = 1.22455e-09, Final residual = 1.79765e-11, No Iterations 1
ExecutionTime = 6.73 s  ClockTime = 9 s

Time = 198

DILUPBiCGStab:  Solving for omega, Initial residual = 1.19925e-09, Final residual = 9.90736e-11, No Iterations 1
ExecutionTime = 6.76 s  ClockTime = 9 s

Time = 199

DILUPBiCGStab:  Solving for omega, Initial residual = 1.17586e-09, Final residual = 9.76706e-11, No Iterations 1
ExecutionTime = 6.8 s  ClockTime = 9 s

Time = 200

DILUPBiCGStab:  Solving for omega, Initial residual = 1.15289e-09, Final residual = 9.62673e-11, No Iterations 1
ExecutionTime = 6.84 s  ClockTime = 9 s

Time = 201

DILUPBiCGStab:  Solving for omega, Initial residual = 1.13033e-09, Final residual = 9.48721e-11, No Iterations 1
ExecutionTime = 6.88 s  ClockTime = 9 s

Time = 202

DILUPBiCGStab:  Solving for omega, Initial residual = 1.10819e-09, Final residual = 9.34902e-11, No Iterations 1
ExecutionTime = 6.91 s  ClockTime = 9 s

Time = 203

DILUPBiCGStab:  Solving for omega, Initial residual = 1.08647e-09, Final residual = 9.21223e-11, No Iterations 1
ExecutionTime = 6.94 s  ClockTime = 9 s

Time = 204

DILUPBiCGStab:  Solving for omega, Initial residual = 1.06516e-09, Final residual = 9.07699e-11, No Iterations 1
ExecutionTime = 6.97 s  ClockTime = 9 s

Time = 205

DILUPBiCGStab:  Solving for omega, Initial residual = 1.04425e-09, Final residual = 8.94329e-11, No Iterations 1
ExecutionTime = 7 s  ClockTime = 9 s

Time = 206

DILUPBiCGStab:  Solving for omega, Initial residual = 1.02374e-09, Final residual = 8.81121e-11, No Iterations 1
ExecutionTime = 7.04 s  ClockTime = 9 s

Time = 207

DILUPBiCGStab:  Solving for omega, Initial residual = 1.00363e-09, Final residual = 8.68073e-11, No Iterations 1
ExecutionTime = 7.07 s  ClockTime = 9 s

Time = 208

DILUPBiCGStab:  Solving for omega, Initial residual = 9.83907e-10, Final residual = 8.55191e-11, No Iterations 1
ExecutionTime = 7.1 s  ClockTime = 9 s

Time = 209

DILUPBiCGStab:  Solving for omega, Initial residual = 9.64565e-10, Final residual = 8.42476e-11, No Iterations 1
ExecutionTime = 7.12 s  ClockTime = 9 s

Time = 210

DILUPBiCGStab:  Solving for omega, Initial residual = 9.45599e-10, Final residual = 8.29932e-11, No Iterations 1
ExecutionTime = 7.15 s  ClockTime = 9 s

Time = 211

DILUPBiCGStab:  Solving for omega, Initial residual = 9.27002e-10, Final residual = 8.17555e-11, No Iterations 1
ExecutionTime = 7.18 s  ClockTime = 9 s

Time = 212

DILUPBiCGStab:  Solving for omega, Initial residual = 9.08767e-10, Final residual = 8.05343e-11, No Iterations 1
ExecutionTime = 7.21 s  ClockTime = 9 s

Time = 213

DILUPBiCGStab:  Solving for omega, Initial residual = 8.90888e-10, Final residual = 7.93296e-11, No Iterations 1
ExecutionTime = 7.24 s  ClockTime = 9 s

Time = 214

DILUPBiCGStab:  Solving for omega, Initial residual = 8.73358e-10, Final residual = 7.81413e-11, No Iterations 1
ExecutionTime = 7.27 s  ClockTime = 9 s

Time = 215

DILUPBiCGStab:  Solving for omega, Initial residual = 8.56171e-10, Final residual = 7.69694e-11, No Iterations 1
ExecutionTime = 7.3 s  ClockTime = 9 s

Time = 216

DILUPBiCGStab:  Solving for omega, Initial residual = 8.39321e-10, Final residual = 7.58138e-11, No Iterations 1
ExecutionTime = 7.33 s  ClockTime = 9 s

Time = 217

DILUPBiCGStab:  Solving for omega, Initial residual = 8.22801e-10, Final residual = 7.46747e-11, No Iterations 1
ExecutionTime = 7.35 s  ClockTime = 10 s

Time = 218

DILUPBiCGStab:  Solving for omega, Initial residual = 8.06605e-10, Final residual = 7.35515e-11, No Iterations 1
ExecutionTime = 7.38 s  ClockTime = 10 s

Time = 219

DILUPBiCGStab:  Solving for omega, Initial residual = 7.90727e-10, Final residual = 7.24442e-11, No Iterations 1
ExecutionTime = 7.42 s  ClockTime = 10 s

Time = 220

DILUPBiCGStab:  Solving for omega, Initial residual = 7.75161e-10, Final residual = 7.13524e-11, No Iterations 1
ExecutionTime = 7.44 s  ClockTime = 10 s

Time = 221

DILUPBiCGStab:  Solving for omega, Initial residual = 7.59901e-10, Final residual = 7.02757e-11, No Iterations 1
ExecutionTime = 7.47 s  ClockTime = 10 s

Time = 222

DILUPBiCGStab:  Solving for omega, Initial residual = 7.44941e-10, Final residual = 6.92144e-11, No Iterations 1
ExecutionTime = 7.5 s  ClockTime = 10 s

Time = 223

DILUPBiCGStab:  Solving for omega, Initial residual = 7.30276e-10, Final residual = 6.81683e-11, No Iterations 1
ExecutionTime = 7.52 s  ClockTime = 10 s

Time = 224

DILUPBiCGStab:  Solving for omega, Initial residual = 7.15899e-10, Final residual = 6.7137e-11, No Iterations 1
ExecutionTime = 7.55 s  ClockTime = 10 s

Time = 225

DILUPBiCGStab:  Solving for omega, Initial residual = 7.01806e-10, Final residual = 6.61208e-11, No Iterations 1
ExecutionTime = 7.58 s  ClockTime = 10 s

Time = 226

DILUPBiCGStab:  Solving for omega, Initial residual = 6.8799e-10, Final residual = 6.51193e-11, No Iterations 1
ExecutionTime = 7.6 s  ClockTime = 10 s

Time = 227

DILUPBiCGStab:  Solving for omega, Initial residual = 6.74446e-10, Final residual = 6.41319e-11, No Iterations 1
ExecutionTime = 7.63 s  ClockTime = 10 s

Time = 228

DILUPBiCGStab:  Solving for omega, Initial residual = 6.61169e-10, Final residual = 6.31588e-11, No Iterations 1
ExecutionTime = 7.66 s  ClockTime = 10 s

Time = 229

DILUPBiCGStab:  Solving for omega, Initial residual = 6.48154e-10, Final residual = 6.22e-11, No Iterations 1
ExecutionTime = 7.69 s  ClockTime = 10 s

Time = 230

DILUPBiCGStab:  Solving for omega, Initial residual = 6.35396e-10, Final residual = 6.1255e-11, No Iterations 1
ExecutionTime = 7.73 s  ClockTime = 10 s

Time = 231

DILUPBiCGStab:  Solving for omega, Initial residual = 6.22889e-10, Final residual = 6.03241e-11, No Iterations 1
ExecutionTime = 7.76 s  ClockTime = 10 s

Time = 232

DILUPBiCGStab:  Solving for omega, Initial residual = 6.10629e-10, Final residual = 5.94065e-11, No Iterations 1
ExecutionTime = 7.79 s  ClockTime = 10 s

Time = 233

DILUPBiCGStab:  Solving for omega, Initial residual = 5.98611e-10, Final residual = 5.85023e-11, No Iterations 1
ExecutionTime = 7.82 s  ClockTime = 10 s

Time = 234

DILUPBiCGStab:  Solving for omega, Initial residual = 5.8683e-10, Final residual = 5.76113e-11, No Iterations 1
ExecutionTime = 7.84 s  ClockTime = 10 s

Time = 235

DILUPBiCGStab:  Solving for omega, Initial residual = 5.75281e-10, Final residual = 5.67334e-11, No Iterations 1
ExecutionTime = 7.87 s  ClockTime = 10 s

Time = 236

DILUPBiCGStab:  Solving for omega, Initial residual = 5.6396e-10, Final residual = 5.58682e-11, No Iterations 1
ExecutionTime = 7.91 s  ClockTime = 10 s

Time = 237

DILUPBiCGStab:  Solving for omega, Initial residual = 5.52863e-10, Final residual = 5.50157e-11, No Iterations 1
ExecutionTime = 7.94 s  ClockTime = 10 s

Time = 238

DILUPBiCGStab:  Solving for omega, Initial residual = 5.41984e-10, Final residual = 5.41756e-11, No Iterations 1
ExecutionTime = 7.97 s  ClockTime = 10 s

Time = 239

DILUPBiCGStab:  Solving for omega, Initial residual = 5.3132e-10, Final residual = 5.33477e-11, No Iterations 1
ExecutionTime = 8 s  ClockTime = 10 s

Time = 240

DILUPBiCGStab:  Solving for omega, Initial residual = 5.20867e-10, Final residual = 5.2532e-11, No Iterations 1
ExecutionTime = 8.03 s  ClockTime = 10 s

Time = 241

DILUPBiCGStab:  Solving for omega, Initial residual = 5.10619e-10, Final residual = 5.17284e-11, No Iterations 1
ExecutionTime = 8.06 s  ClockTime = 10 s

Time = 242

DILUPBiCGStab:  Solving for omega, Initial residual = 5.00574e-10, Final residual = 5.09365e-11, No Iterations 1
ExecutionTime = 8.09 s  ClockTime = 10 s

Time = 243

DILUPBiCGStab:  Solving for omega, Initial residual = 4.90726e-10, Final residual = 5.01562e-11, No Iterations 1
ExecutionTime = 8.12 s  ClockTime = 10 s

Time = 244

DILUPBiCGStab:  Solving for omega, Initial residual = 4.81073e-10, Final residual = 4.93876e-11, No Iterations 1
ExecutionTime = 8.15 s  ClockTime = 10 s

Time = 245

DILUPBiCGStab:  Solving for omega, Initial residual = 4.7161e-10, Final residual = 4.86306e-11, No Iterations 1
ExecutionTime = 8.19 s  ClockTime = 10 s

Time = 246

DILUPBiCGStab:  Solving for omega, Initial residual = 4.62334e-10, Final residual = 4.78845e-11, No Iterations 1
ExecutionTime = 8.22 s  ClockTime = 11 s

Time = 247

DILUPBiCGStab:  Solving for omega, Initial residual = 4.5324e-10, Final residual = 4.71495e-11, No Iterations 1
ExecutionTime = 8.25 s  ClockTime = 11 s

Time = 248

DILUPBiCGStab:  Solving for omega, Initial residual = 4.44326e-10, Final residual = 4.64253e-11, No Iterations 1
ExecutionTime = 8.28 s  ClockTime = 11 s

Time = 249

DILUPBiCGStab:  Solving for omega, Initial residual = 4.35587e-10, Final residual = 4.57119e-11, No Iterations 1
ExecutionTime = 8.31 s  ClockTime = 11 s

Time = 250

DILUPBiCGStab:  Solving for omega, Initial residual = 4.2702e-10, Final residual = 4.50087e-11, No Iterations 1
ExecutionTime = 8.34 s  ClockTime = 11 s

Time = 251

DILUPBiCGStab:  Solving for omega, Initial residual = 4.18622e-10, Final residual = 4.43161e-11, No Iterations 1
ExecutionTime = 8.37 s  ClockTime = 11 s

Time = 252

DILUPBiCGStab:  Solving for omega, Initial residual = 4.10389e-10, Final residual = 4.3634e-11, No Iterations 1
ExecutionTime = 8.41 s  ClockTime = 11 s

Time = 253

DILUPBiCGStab:  Solving for omega, Initial residual = 4.02319e-10, Final residual = 4.29619e-11, No Iterations 1
ExecutionTime = 8.44 s  ClockTime = 11 s

Time = 254

DILUPBiCGStab:  Solving for omega, Initial residual = 3.94407e-10, Final residual = 4.22998e-11, No Iterations 1
ExecutionTime = 8.48 s  ClockTime = 11 s

Time = 255

DILUPBiCGStab:  Solving for omega, Initial residual = 3.86651e-10, Final residual = 4.16475e-11, No Iterations 1
ExecutionTime = 8.51 s  ClockTime = 11 s

Time = 256

DILUPBiCGStab:  Solving for omega, Initial residual = 3.79047e-10, Final residual = 4.10048e-11, No Iterations 1
ExecutionTime = 8.56 s  ClockTime = 11 s

Time = 257

DILUPBiCGStab:  Solving for omega, Initial residual = 3.71593e-10, Final residual = 4.03718e-11, No Iterations 1
ExecutionTime = 8.59 s  ClockTime = 11 s

Time = 258

DILUPBiCGStab:  Solving for omega, Initial residual = 3.64285e-10, Final residual = 3.9748e-11, No Iterations 1
ExecutionTime = 8.62 s  ClockTime = 11 s

Time = 259

DILUPBiCGStab:  Solving for omega, Initial residual = 3.57122e-10, Final residual = 3.91334e-11, No Iterations 1
ExecutionTime = 8.65 s  ClockTime = 11 s

Time = 260

DILUPBiCGStab:  Solving for omega, Initial residual = 3.50098e-10, Final residual = 3.85276e-11, No Iterations 1
ExecutionTime = 8.68 s  ClockTime = 11 s

Time = 261

DILUPBiCGStab:  Solving for omega, Initial residual = 3.43213e-10, Final residual = 3.79313e-11, No Iterations 1
ExecutionTime = 8.73 s  ClockTime = 11 s

Time = 262

DILUPBiCGStab:  Solving for omega, Initial residual = 3.36463e-10, Final residual = 3.73438e-11, No Iterations 1
ExecutionTime = 8.76 s  ClockTime = 11 s

Time = 263

DILUPBiCGStab:  Solving for omega, Initial residual = 3.29846e-10, Final residual = 3.6765e-11, No Iterations 1
ExecutionTime = 8.8 s  ClockTime = 11 s

Time = 264

DILUPBiCGStab:  Solving for omega, Initial residual = 3.23359e-10, Final residual = 3.61947e-11, No Iterations 1
ExecutionTime = 8.83 s  ClockTime = 11 s

Time = 265

DILUPBiCGStab:  Solving for omega, Initial residual = 3.16998e-10, Final residual = 3.56331e-11, No Iterations 1
ExecutionTime = 8.86 s  ClockTime = 11 s

Time = 266

DILUPBiCGStab:  Solving for omega, Initial residual = 3.10763e-10, Final residual = 3.50794e-11, No Iterations 1
ExecutionTime = 8.89 s  ClockTime = 11 s

Time = 267

DILUPBiCGStab:  Solving for omega, Initial residual = 3.0465e-10, Final residual = 3.45341e-11, No Iterations 1
ExecutionTime = 8.92 s  ClockTime = 11 s

Time = 268

DILUPBiCGStab:  Solving for omega, Initial residual = 2.98657e-10, Final residual = 3.39968e-11, No Iterations 1
ExecutionTime = 8.96 s  ClockTime = 11 s

Time = 269

DILUPBiCGStab:  Solving for omega, Initial residual = 2.92781e-10, Final residual = 3.34675e-11, No Iterations 1
ExecutionTime = 9 s  ClockTime = 11 s

Time = 270

DILUPBiCGStab:  Solving for omega, Initial residual = 2.87021e-10, Final residual = 3.29458e-11, No Iterations 1
ExecutionTime = 9.02 s  ClockTime = 11 s

Time = 271

DILUPBiCGStab:  Solving for omega, Initial residual = 2.81373e-10, Final residual = 3.2432e-11, No Iterations 1
ExecutionTime = 9.06 s  ClockTime = 11 s

Time = 272

DILUPBiCGStab:  Solving for omega, Initial residual = 2.75836e-10, Final residual = 3.19258e-11, No Iterations 1
ExecutionTime = 9.08 s  ClockTime = 11 s

Time = 273

DILUPBiCGStab:  Solving for omega, Initial residual = 2.70408e-10, Final residual = 3.14273e-11, No Iterations 1
ExecutionTime = 9.11 s  ClockTime = 11 s

Time = 274

DILUPBiCGStab:  Solving for omega, Initial residual = 2.65085e-10, Final residual = 3.0936e-11, No Iterations 1
ExecutionTime = 9.14 s  ClockTime = 12 s

Time = 275

DILUPBiCGStab:  Solving for omega, Initial residual = 2.59868e-10, Final residual = 3.04523e-11, No Iterations 1
ExecutionTime = 9.18 s  ClockTime = 12 s

Time = 276

DILUPBiCGStab:  Solving for omega, Initial residual = 2.54752e-10, Final residual = 2.99754e-11, No Iterations 1
ExecutionTime = 9.21 s  ClockTime = 12 s

Time = 277

DILUPBiCGStab:  Solving for omega, Initial residual = 2.49736e-10, Final residual = 2.95059e-11, No Iterations 1
ExecutionTime = 9.25 s  ClockTime = 12 s

Time = 278

DILUPBiCGStab:  Solving for omega, Initial residual = 2.44818e-10, Final residual = 2.90429e-11, No Iterations 1
ExecutionTime = 9.27 s  ClockTime = 12 s

Time = 279

DILUPBiCGStab:  Solving for omega, Initial residual = 2.39997e-10, Final residual = 2.8587e-11, No Iterations 1
ExecutionTime = 9.3 s  ClockTime = 12 s

Time = 280

DILUPBiCGStab:  Solving for omega, Initial residual = 2.3527e-10, Final residual = 2.81376e-11, No Iterations 1
ExecutionTime = 9.33 s  ClockTime = 12 s

Time = 281

DILUPBiCGStab:  Solving for omega, Initial residual = 2.30635e-10, Final residual = 2.76951e-11, No Iterations 1
ExecutionTime = 9.36 s  ClockTime = 12 s

Time = 282

DILUPBiCGStab:  Solving for omega, Initial residual = 2.26091e-10, Final residual = 2.72589e-11, No Iterations 1
ExecutionTime = 9.38 s  ClockTime = 12 s

Time = 283

DILUPBiCGStab:  Solving for omega, Initial residual = 2.21636e-10, Final residual = 2.68295e-11, No Iterations 1
ExecutionTime = 9.41 s  ClockTime = 12 s

Time = 284

DILUPBiCGStab:  Solving for omega, Initial residual = 2.17267e-10, Final residual = 2.64063e-11, No Iterations 1
ExecutionTime = 9.44 s  ClockTime = 12 s

Time = 285

DILUPBiCGStab:  Solving for omega, Initial residual = 2.12985e-10, Final residual = 2.59896e-11, No Iterations 1
ExecutionTime = 9.48 s  ClockTime = 12 s

Time = 286

DILUPBiCGStab:  Solving for omega, Initial residual = 2.08785e-10, Final residual = 2.55789e-11, No Iterations 1
ExecutionTime = 9.51 s  ClockTime = 12 s

Time = 287

DILUPBiCGStab:  Solving for omega, Initial residual = 2.04668e-10, Final residual = 2.51745e-11, No Iterations 1
ExecutionTime = 9.53 s  ClockTime = 12 s

Time = 288

DILUPBiCGStab:  Solving for omega, Initial residual = 2.00631e-10, Final residual = 2.4776e-11, No Iterations 1
ExecutionTime = 9.56 s  ClockTime = 12 s

Time = 289

DILUPBiCGStab:  Solving for omega, Initial residual = 1.96673e-10, Final residual = 2.43838e-11, No Iterations 1
ExecutionTime = 9.6 s  ClockTime = 12 s

Time = 290

DILUPBiCGStab:  Solving for omega, Initial residual = 1.92793e-10, Final residual = 2.39971e-11, No Iterations 1
ExecutionTime = 9.62 s  ClockTime = 12 s

Time = 291

DILUPBiCGStab:  Solving for omega, Initial residual = 1.88988e-10, Final residual = 2.36166e-11, No Iterations 1
ExecutionTime = 9.66 s  ClockTime = 12 s

Time = 292

DILUPBiCGStab:  Solving for omega, Initial residual = 1.85257e-10, Final residual = 2.32415e-11, No Iterations 1
ExecutionTime = 9.69 s  ClockTime = 12 s

Time = 293

DILUPBiCGStab:  Solving for omega, Initial residual = 1.81599e-10, Final residual = 2.28722e-11, No Iterations 1
ExecutionTime = 9.72 s  ClockTime = 12 s

Time = 294

DILUPBiCGStab:  Solving for omega, Initial residual = 1.78013e-10, Final residual = 2.25081e-11, No Iterations 1
ExecutionTime = 9.75 s  ClockTime = 12 s

Time = 295

DILUPBiCGStab:  Solving for omega, Initial residual = 1.74497e-10, Final residual = 2.21498e-11, No Iterations 1
ExecutionTime = 9.77 s  ClockTime = 12 s

Time = 296

DILUPBiCGStab:  Solving for omega, Initial residual = 1.71049e-10, Final residual = 2.17966e-11, No Iterations 1
ExecutionTime = 9.8 s  ClockTime = 12 s

Time = 297

DILUPBiCGStab:  Solving for omega, Initial residual = 1.67669e-10, Final residual = 2.14491e-11, No Iterations 1
ExecutionTime = 9.84 s  ClockTime = 12 s

Time = 298

DILUPBiCGStab:  Solving for omega, Initial residual = 1.64354e-10, Final residual = 2.11065e-11, No Iterations 1
ExecutionTime = 9.87 s  ClockTime = 12 s

Time = 299

DILUPBiCGStab:  Solving for omega, Initial residual = 1.61105e-10, Final residual = 2.07694e-11, No Iterations 1
ExecutionTime = 9.89 s  ClockTime = 12 s

Time = 300

DILUPBiCGStab:  Solving for omega, Initial residual = 1.57918e-10, Final residual = 2.0437e-11, No Iterations 1
ExecutionTime = 9.92 s  ClockTime = 12 s

Time = 301

DILUPBiCGStab:  Solving for omega, Initial residual = 1.54795e-10, Final residual = 2.01101e-11, No Iterations 1
ExecutionTime = 9.96 s  ClockTime = 12 s

Time = 302

DILUPBiCGStab:  Solving for omega, Initial residual = 1.51731e-10, Final residual = 1.97877e-11, No Iterations 1
ExecutionTime = 9.99 s  ClockTime = 12 s

Time = 303

DILUPBiCGStab:  Solving for omega, Initial residual = 1.48729e-10, Final residual = 1.94705e-11, No Iterations 1
ExecutionTime = 10.03 s  ClockTime = 13 s

Time = 304

DILUPBiCGStab:  Solving for omega, Initial residual = 1.45784e-10, Final residual = 1.91577e-11, No Iterations 1
ExecutionTime = 10.06 s  ClockTime = 13 s

Time = 305

DILUPBiCGStab:  Solving for omega, Initial residual = 1.42898e-10, Final residual = 1.88501e-11, No Iterations 1
ExecutionTime = 10.09 s  ClockTime = 13 s

Time = 306

DILUPBiCGStab:  Solving for omega, Initial residual = 1.40068e-10, Final residual = 1.85467e-11, No Iterations 1
ExecutionTime = 10.12 s  ClockTime = 13 s

Time = 307

DILUPBiCGStab:  Solving for omega, Initial residual = 1.37294e-10, Final residual = 1.82484e-11, No Iterations 1
ExecutionTime = 10.15 s  ClockTime = 13 s

Time = 308

DILUPBiCGStab:  Solving for omega, Initial residual = 1.34573e-10, Final residual = 1.79544e-11, No Iterations 1
ExecutionTime = 10.18 s  ClockTime = 13 s

Time = 309

DILUPBiCGStab:  Solving for omega, Initial residual = 1.31908e-10, Final residual = 1.76654e-11, No Iterations 1
ExecutionTime = 10.21 s  ClockTime = 13 s

Time = 310

DILUPBiCGStab:  Solving for omega, Initial residual = 1.29293e-10, Final residual = 1.73807e-11, No Iterations 1
ExecutionTime = 10.23 s  ClockTime = 13 s

Time = 311

DILUPBiCGStab:  Solving for omega, Initial residual = 1.26732e-10, Final residual = 1.71008e-11, No Iterations 1
ExecutionTime = 10.27 s  ClockTime = 13 s

Time = 312

DILUPBiCGStab:  Solving for omega, Initial residual = 1.2422e-10, Final residual = 1.68251e-11, No Iterations 1
ExecutionTime = 10.3 s  ClockTime = 13 s

Time = 313

DILUPBiCGStab:  Solving for omega, Initial residual = 1.21759e-10, Final residual = 1.6554e-11, No Iterations 1
ExecutionTime = 10.33 s  ClockTime = 13 s

Time = 314

DILUPBiCGStab:  Solving for omega, Initial residual = 1.19346e-10, Final residual = 1.62869e-11, No Iterations 1
ExecutionTime = 10.36 s  ClockTime = 13 s

Time = 315

DILUPBiCGStab:  Solving for omega, Initial residual = 1.16982e-10, Final residual = 1.60243e-11, No Iterations 1
ExecutionTime = 10.39 s  ClockTime = 13 s

Time = 316

DILUPBiCGStab:  Solving for omega, Initial residual = 1.14665e-10, Final residual = 1.57657e-11, No Iterations 1
ExecutionTime = 10.42 s  ClockTime = 13 s

Time = 317

DILUPBiCGStab:  Solving for omega, Initial residual = 1.12396e-10, Final residual = 1.55114e-11, No Iterations 1
ExecutionTime = 10.45 s  ClockTime = 13 s

Time = 318

DILUPBiCGStab:  Solving for omega, Initial residual = 1.10172e-10, Final residual = 1.52609e-11, No Iterations 1
ExecutionTime = 10.48 s  ClockTime = 13 s

Time = 319

DILUPBiCGStab:  Solving for omega, Initial residual = 1.07995e-10, Final residual = 1.50145e-11, No Iterations 1
ExecutionTime = 10.51 s  ClockTime = 13 s

Time = 320

DILUPBiCGStab:  Solving for omega, Initial residual = 1.05862e-10, Final residual = 1.47714e-11, No Iterations 1
ExecutionTime = 10.54 s  ClockTime = 13 s

Time = 321

DILUPBiCGStab:  Solving for omega, Initial residual = 1.03775e-10, Final residual = 1.45319e-11, No Iterations 1
ExecutionTime = 10.58 s  ClockTime = 13 s

Time = 322

DILUPBiCGStab:  Solving for omega, Initial residual = 1.01731e-10, Final residual = 1.42948e-11, No Iterations 1
ExecutionTime = 10.61 s  ClockTime = 13 s

Time = 323

DILUPBiCGStab:  Solving for omega, Initial residual = 9.97336e-11, Final residual = 9.97336e-11, No Iterations 0
ExecutionTime = 10.64 s  ClockTime = 13 s

Time = 324

DILUPBiCGStab:  Solving for omega, Initial residual = 9.97336e-11, Final residual = 9.97336e-11, No Iterations 0
ExecutionTime = 10.68 s  ClockTime = 13 s

Time = 325

DILUPBiCGStab:  Solving for omega, Initial residual = 9.97336e-11, Final residual = 9.97336e-11, No Iterations 0
ExecutionTime = 10.71 s  ClockTime = 13 s

Time = 326

DILUPBiCGStab:  Solving for omega, Initial residual = 9.97336e-11, Final residual = 9.97336e-11, No Iterations 0
ExecutionTime = 10.74 s  ClockTime = 13 s

Time = 327

DILUPBiCGStab:  Solving for omega, Initial residual = 9.97336e-11, Final residual = 9.97336e-11, No Iterations 0
ExecutionTime = 10.79 s  ClockTime = 13 s

Time = 328

DILUPBiCGStab:  Solving for omega, Initial residual = 9.97336e-11, Final residual = 9.97336e-11, No Iterations 0
ExecutionTime = 10.83 s  ClockTime = 13 s

Time = 329

DILUPBiCGStab:  Solving for omega, Initial residual = 9.97336e-11, Final residual = 9.97336e-11, No Iterations 0
ExecutionTime = 10.86 s  ClockTime = 13 s

Time = 330

DILUPBiCGStab:  Solving for omega, Initial residual = 9.97336e-11, Final residual = 9.97336e-11, No Iterations 0
ExecutionTime = 10.89 s  ClockTime = 13 s

Time = 331

DILUPBiCGStab:  Solving for omega, Initial residual = 9.97336e-11, Final residual = 9.97336e-11, No Iterations 0
ExecutionTime = 10.92 s  ClockTime = 14 s

Time = 332

DILUPBiCGStab:  Solving for omega, Initial residual = 9.97336e-11, Final residual = 9.97336e-11, No Iterations 0
ExecutionTime = 10.95 s  ClockTime = 14 s

Time = 333

DILUPBiCGStab:  Solving for omega, Initial residual = 9.97336e-11, Final residual = 9.97336e-11, No Iterations 0
ExecutionTime = 10.98 s  ClockTime = 14 s

Time = 334

DILUPBiCGStab:  Solving for omega, Initial residual = 9.97336e-11, Final residual = 9.97336e-11, No Iterations 0
ExecutionTime = 11.01 s  ClockTime = 14 s

Time = 335

DILUPBiCGStab:  Solving for omega, Initial residual = 9.97336e-11, Final residual = 9.97336e-11, No Iterations 0
ExecutionTime = 11.04 s  ClockTime = 14 s

Time = 336

DILUPBiCGStab:  Solving for omega, Initial residual = 9.97336e-11, Final residual = 9.97336e-11, No Iterations 0
ExecutionTime = 11.07 s  ClockTime = 14 s

Time = 337

DILUPBiCGStab:  Solving for omega, Initial residual = 9.97336e-11, Final residual = 9.97336e-11, No Iterations 0
ExecutionTime = 11.1 s  ClockTime = 14 s

Time = 338

DILUPBiCGStab:  Solving for omega, Initial residual = 9.97336e-11, Final residual = 9.97336e-11, No Iterations 0
ExecutionTime = 11.13 s  ClockTime = 14 s

Time = 339

DILUPBiCGStab:  Solving for omega, Initial residual = 9.97336e-11, Final residual = 9.97336e-11, No Iterations 0
ExecutionTime = 11.15 s  ClockTime = 14 s

Time = 340

DILUPBiCGStab:  Solving for omega, Initial residual = 9.97336e-11, Final residual = 9.97336e-11, No Iterations 0
ExecutionTime = 11.19 s  ClockTime = 14 s

Time = 341

DILUPBiCGStab:  Solving for omega, Initial residual = 9.97336e-11, Final residual = 9.97336e-11, No Iterations 0
ExecutionTime = 11.22 s  ClockTime = 14 s

Time = 342

DILUPBiCGStab:  Solving for omega, Initial residual = 9.97336e-11, Final residual = 9.97336e-11, No Iterations 0
ExecutionTime = 11.25 s  ClockTime = 14 s

Time = 343

DILUPBiCGStab:  Solving for omega, Initial residual = 9.97336e-11, Final residual = 9.97336e-11, No Iterations 0
ExecutionTime = 11.28 s  ClockTime = 14 s

Time = 344

DILUPBiCGStab:  Solving for omega, Initial residual = 9.97336e-11, Final residual = 9.97336e-11, No Iterations 0
ExecutionTime = 11.3 s  ClockTime = 14 s

Time = 345

DILUPBiCGStab:  Solving for omega, Initial residual = 9.97336e-11, Final residual = 9.97336e-11, No Iterations 0
ExecutionTime = 11.33 s  ClockTime = 14 s

Time = 346

DILUPBiCGStab:  Solving for omega, Initial residual = 9.97336e-11, Final residual = 9.97336e-11, No Iterations 0
ExecutionTime = 11.36 s  ClockTime = 14 s

Time = 347

DILUPBiCGStab:  Solving for omega, Initial residual = 9.97336e-11, Final residual = 9.97336e-11, No Iterations 0
ExecutionTime = 11.39 s  ClockTime = 14 s

Time = 348

DILUPBiCGStab:  Solving for omega, Initial residual = 9.97336e-11, Final residual = 9.97336e-11, No Iterations 0
ExecutionTime = 11.42 s  ClockTime = 14 s

Time = 349

DILUPBiCGStab:  Solving for omega, Initial residual = 9.97336e-11, Final residual = 9.97336e-11, No Iterations 0
ExecutionTime = 11.45 s  ClockTime = 14 s

Time = 350

DILUPBiCGStab:  Solving for omega, Initial residual = 9.97336e-11, Final residual = 9.97336e-11, No Iterations 0
ExecutionTime = 11.48 s  ClockTime = 14 s

Time = 351

DILUPBiCGStab:  Solving for omega, Initial residual = 9.97336e-11, Final residual = 9.97336e-11, No Iterations 0
ExecutionTime = 11.51 s  ClockTime = 14 s

Time = 352

DILUPBiCGStab:  Solving for omega, Initial residual = 9.97336e-11, Final residual = 9.97336e-11, No Iterations 0
ExecutionTime = 11.54 s  ClockTime = 14 s

Time = 353

DILUPBiCGStab:  Solving for omega, Initial residual = 9.97336e-11, Final residual = 9.97336e-11, No Iterations 0
ExecutionTime = 11.56 s  ClockTime = 14 s

Time = 354

DILUPBiCGStab:  Solving for omega, Initial residual = 9.97336e-11, Final residual = 9.97336e-11, No Iterations 0
ExecutionTime = 11.59 s  ClockTime = 14 s

Time = 355

DILUPBiCGStab:  Solving for omega, Initial residual = 9.97336e-11, Final residual = 9.97336e-11, No Iterations 0
ExecutionTime = 11.62 s  ClockTime = 14 s

Time = 356

DILUPBiCGStab:  Solving for omega, Initial residual = 9.97336e-11, Final residual = 9.97336e-11, No Iterations 0
ExecutionTime = 11.64 s  ClockTime = 14 s

Time = 357

DILUPBiCGStab:  Solving for omega, Initial residual = 9.97336e-11, Final residual = 9.97336e-11, No Iterations 0
ExecutionTime = 11.68 s  ClockTime = 14 s

Time = 358

DILUPBiCGStab:  Solving for omega, Initial residual = 9.97336e-11, Final residual = 9.97336e-11, No Iterations 0
ExecutionTime = 11.72 s  ClockTime = 14 s

Time = 359

DILUPBiCGStab:  Solving for omega, Initial residual = 9.97336e-11, Final residual = 9.97336e-11, No Iterations 0
ExecutionTime = 11.75 s  ClockTime = 14 s

Time = 360

DILUPBiCGStab:  Solving for omega, Initial residual = 9.97336e-11, Final residual = 9.97336e-11, No Iterations 0
ExecutionTime = 11.78 s  ClockTime = 14 s

Time = 361

DILUPBiCGStab:  Solving for omega, Initial residual = 9.97336e-11, Final residual = 9.97336e-11, No Iterations 0
ExecutionTime = 11.81 s  ClockTime = 15 s

Time = 362

DILUPBiCGStab:  Solving for omega, Initial residual = 9.97336e-11, Final residual = 9.97336e-11, No Iterations 0
ExecutionTime = 11.85 s  ClockTime = 15 s

Time = 363

DILUPBiCGStab:  Solving for omega, Initial residual = 9.97336e-11, Final residual = 9.97336e-11, No Iterations 0
ExecutionTime = 11.89 s  ClockTime = 15 s

Time = 364

DILUPBiCGStab:  Solving for omega, Initial residual = 9.97336e-11, Final residual = 9.97336e-11, No Iterations 0
ExecutionTime = 11.92 s  ClockTime = 15 s

Time = 365

DILUPBiCGStab:  Solving for omega, Initial residual = 9.97336e-11, Final residual = 9.97336e-11, No Iterations 0
ExecutionTime = 11.95 s  ClockTime = 15 s

Time = 366

DILUPBiCGStab:  Solving for omega, Initial residual = 9.97336e-11, Final residual = 9.97336e-11, No Iterations 0
ExecutionTime = 11.98 s  ClockTime = 15 s

Time = 367

DILUPBiCGStab:  Solving for omega, Initial residual = 9.97336e-11, Final residual = 9.97336e-11, No Iterations 0
ExecutionTime = 12.01 s  ClockTime = 15 s

Time = 368

DILUPBiCGStab:  Solving for omega, Initial residual = 9.97336e-11, Final residual = 9.97336e-11, No Iterations 0
ExecutionTime = 12.04 s  ClockTime = 15 s

Time = 369

DILUPBiCGStab:  Solving for omega, Initial residual = 9.97336e-11, Final residual = 9.97336e-11, No Iterations 0
ExecutionTime = 12.06 s  ClockTime = 15 s

Time = 370

DILUPBiCGStab:  Solving for omega, Initial residual = 9.97336e-11, Final residual = 9.97336e-11, No Iterations 0
ExecutionTime = 12.09 s  ClockTime = 15 s

Time = 371

DILUPBiCGStab:  Solving for omega, Initial residual = 9.97336e-11, Final residual = 9.97336e-11, No Iterations 0
ExecutionTime = 12.12 s  ClockTime = 15 s

Time = 372

DILUPBiCGStab:  Solving for omega, Initial residual = 9.97336e-11, Final residual = 9.97336e-11, No Iterations 0
ExecutionTime = 12.15 s  ClockTime = 15 s

Time = 373

DILUPBiCGStab:  Solving for omega, Initial residual = 9.97336e-11, Final residual = 9.97336e-11, No Iterations 0
ExecutionTime = 12.18 s  ClockTime = 15 s

Time = 374

DILUPBiCGStab:  Solving for omega, Initial residual = 9.97336e-11, Final residual = 9.97336e-11, No Iterations 0
ExecutionTime = 12.2 s  ClockTime = 15 s

Time = 375

DILUPBiCGStab:  Solving for omega, Initial residual = 9.97336e-11, Final residual = 9.97336e-11, No Iterations 0
ExecutionTime = 12.24 s  ClockTime = 15 s

Time = 376

DILUPBiCGStab:  Solving for omega, Initial residual = 9.97336e-11, Final residual = 9.97336e-11, No Iterations 0
ExecutionTime = 12.27 s  ClockTime = 15 s

Time = 377

DILUPBiCGStab:  Solving for omega, Initial residual = 9.97336e-11, Final residual = 9.97336e-11, No Iterations 0
ExecutionTime = 12.29 s  ClockTime = 15 s

Time = 378

DILUPBiCGStab:  Solving for omega, Initial residual = 9.97336e-11, Final residual = 9.97336e-11, No Iterations 0
ExecutionTime = 12.32 s  ClockTime = 15 s

Time = 379

DILUPBiCGStab:  Solving for omega, Initial residual = 9.97336e-11, Final residual = 9.97336e-11, No Iterations 0
ExecutionTime = 12.35 s  ClockTime = 15 s

Time = 380

DILUPBiCGStab:  Solving for omega, Initial residual = 9.97336e-11, Final residual = 9.97336e-11, No Iterations 0
ExecutionTime = 12.38 s  ClockTime = 15 s

Time = 381

DILUPBiCGStab:  Solving for omega, Initial residual = 9.97336e-11, Final residual = 9.97336e-11, No Iterations 0
ExecutionTime = 12.41 s  ClockTime = 15 s

Time = 382

DILUPBiCGStab:  Solving for omega, Initial residual = 9.97336e-11, Final residual = 9.97336e-11, No Iterations 0
ExecutionTime = 12.43 s  ClockTime = 15 s

Time = 383

DILUPBiCGStab:  Solving for omega, Initial residual = 9.97336e-11, Final residual = 9.97336e-11, No Iterations 0
ExecutionTime = 12.46 s  ClockTime = 15 s

Time = 384

DILUPBiCGStab:  Solving for omega, Initial residual = 9.97336e-11, Final residual = 9.97336e-11, No Iterations 0
ExecutionTime = 12.49 s  ClockTime = 15 s

Time = 385

DILUPBiCGStab:  Solving for omega, Initial residual = 9.97336e-11, Final residual = 9.97336e-11, No Iterations 0
ExecutionTime = 12.52 s  ClockTime = 15 s

Time = 386

DILUPBiCGStab:  Solving for omega, Initial residual = 9.97336e-11, Final residual = 9.97336e-11, No Iterations 0
ExecutionTime = 12.54 s  ClockTime = 15 s

Time = 387

DILUPBiCGStab:  Solving for omega, Initial residual = 9.97336e-11, Final residual = 9.97336e-11, No Iterations 0
ExecutionTime = 12.58 s  ClockTime = 15 s

Time = 388

DILUPBiCGStab:  Solving for omega, Initial residual = 9.97336e-11, Final residual = 9.97336e-11, No Iterations 0
ExecutionTime = 12.61 s  ClockTime = 15 s

Time = 389

DILUPBiCGStab:  Solving for omega, Initial residual = 9.97336e-11, Final residual = 9.97336e-11, No Iterations 0
ExecutionTime = 12.64 s  ClockTime = 15 s

Time = 390

DILUPBiCGStab:  Solving for omega, Initial residual = 9.97336e-11, Final residual = 9.97336e-11, No Iterations 0
ExecutionTime = 12.66 s  ClockTime = 15 s

Time = 391

DILUPBiCGStab:  Solving for omega, Initial residual = 9.97336e-11, Final residual = 9.97336e-11, No Iterations 0
ExecutionTime = 12.69 s  ClockTime = 16 s

Time = 392

DILUPBiCGStab:  Solving for omega, Initial residual = 9.97336e-11, Final residual = 9.97336e-11, No Iterations 0
ExecutionTime = 12.72 s  ClockTime = 16 s

Time = 393

DILUPBiCGStab:  Solving for omega, Initial residual = 9.97336e-11, Final residual = 9.97336e-11, No Iterations 0
ExecutionTime = 12.75 s  ClockTime = 16 s

Time = 394

DILUPBiCGStab:  Solving for omega, Initial residual = 9.97336e-11, Final residual = 9.97336e-11, No Iterations 0
ExecutionTime = 12.78 s  ClockTime = 16 s

Time = 395

DILUPBiCGStab:  Solving for omega, Initial residual = 9.97336e-11, Final residual = 9.97336e-11, No Iterations 0
ExecutionTime = 12.81 s  ClockTime = 16 s

Time = 396

DILUPBiCGStab:  Solving for omega, Initial residual = 9.97336e-11, Final residual = 9.97336e-11, No Iterations 0
ExecutionTime = 12.85 s  ClockTime = 16 s

Time = 397

DILUPBiCGStab:  Solving for omega, Initial residual = 9.97336e-11, Final residual = 9.97336e-11, No Iterations 0
ExecutionTime = 12.88 s  ClockTime = 16 s

Time = 398

DILUPBiCGStab:  Solving for omega, Initial residual = 9.97336e-11, Final residual = 9.97336e-11, No Iterations 0
ExecutionTime = 12.91 s  ClockTime = 16 s

Time = 399

DILUPBiCGStab:  Solving for omega, Initial residual = 9.97336e-11, Final residual = 9.97336e-11, No Iterations 0
ExecutionTime = 12.93 s  ClockTime = 16 s

Time = 400

DILUPBiCGStab:  Solving for omega, Initial residual = 9.97336e-11, Final residual = 9.97336e-11, No Iterations 0
ExecutionTime = 12.96 s  ClockTime = 16 s

Time = 401

DILUPBiCGStab:  Solving for omega, Initial residual = 9.97336e-11, Final residual = 9.97336e-11, No Iterations 0
ExecutionTime = 12.98 s  ClockTime = 16 s

Time = 402

DILUPBiCGStab:  Solving for omega, Initial residual = 9.97336e-11, Final residual = 9.97336e-11, No Iterations 0
ExecutionTime = 13.01 s  ClockTime = 16 s

Time = 403

DILUPBiCGStab:  Solving for omega, Initial residual = 9.97336e-11, Final residual = 9.97336e-11, No Iterations 0
ExecutionTime = 13.05 s  ClockTime = 16 s

Time = 404

DILUPBiCGStab:  Solving for omega, Initial residual = 9.97336e-11, Final residual = 9.97336e-11, No Iterations 0
ExecutionTime = 13.07 s  ClockTime = 16 s

Time = 405

DILUPBiCGStab:  Solving for omega, Initial residual = 9.97336e-11, Final residual = 9.97336e-11, No Iterations 0
ExecutionTime = 13.1 s  ClockTime = 16 s

Time = 406

DILUPBiCGStab:  Solving for omega, Initial residual = 9.97336e-11, Final residual = 9.97336e-11, No Iterations 0
ExecutionTime = 13.12 s  ClockTime = 16 s

Time = 407

DILUPBiCGStab:  Solving for omega, Initial residual = 9.97336e-11, Final residual = 9.97336e-11, No Iterations 0
ExecutionTime = 13.14 s  ClockTime = 16 s

Time = 408

DILUPBiCGStab:  Solving for omega, Initial residual = 9.97336e-11, Final residual = 9.97336e-11, No Iterations 0
ExecutionTime = 13.16 s  ClockTime = 16 s

Time = 409

DILUPBiCGStab:  Solving for omega, Initial residual = 9.97336e-11, Final residual = 9.97336e-11, No Iterations 0
ExecutionTime = 13.19 s  ClockTime = 16 s

Time = 410

DILUPBiCGStab:  Solving for omega, Initial residual = 9.97336e-11, Final residual = 9.97336e-11, No Iterations 0
ExecutionTime = 13.22 s  ClockTime = 16 s

Time = 411

DILUPBiCGStab:  Solving for omega, Initial residual = 9.97336e-11, Final residual = 9.97336e-11, No Iterations 0
ExecutionTime = 13.24 s  ClockTime = 16 s

Time = 412

DILUPBiCGStab:  Solving for omega, Initial residual = 9.97336e-11, Final residual = 9.97336e-11, No Iterations 0
ExecutionTime = 13.26 s  ClockTime = 16 s

Time = 413

DILUPBiCGStab:  Solving for omega, Initial residual = 9.97336e-11, Final residual = 9.97336e-11, No Iterations 0
ExecutionTime = 13.28 s  ClockTime = 16 s

Time = 414

DILUPBiCGStab:  Solving for omega, Initial residual = 9.97336e-11, Final residual = 9.97336e-11, No Iterations 0
ExecutionTime = 13.31 s  ClockTime = 17 s

Time = 415

DILUPBiCGStab:  Solving for omega, Initial residual = 9.97336e-11, Final residual = 9.97336e-11, No Iterations 0
ExecutionTime = 13.33 s  ClockTime = 17 s

Time = 416

DILUPBiCGStab:  Solving for omega, Initial residual = 9.97336e-11, Final residual = 9.97336e-11, No Iterations 0
ExecutionTime = 13.35 s  ClockTime = 17 s

Time = 417

DILUPBiCGStab:  Solving for omega, Initial residual = 9.97336e-11, Final residual = 9.97336e-11, No Iterations 0
ExecutionTime = 13.38 s  ClockTime = 17 s

Time = 418

DILUPBiCGStab:  Solving for omega, Initial residual = 9.97336e-11, Final residual = 9.97336e-11, No Iterations 0
ExecutionTime = 13.41 s  ClockTime = 17 s

Time = 419

DILUPBiCGStab:  Solving for omega, Initial residual = 9.97336e-11, Final residual = 9.97336e-11, No Iterations 0
ExecutionTime = 13.44 s  ClockTime = 17 s

Time = 420

DILUPBiCGStab:  Solving for omega, Initial residual = 9.97336e-11, Final residual = 9.97336e-11, No Iterations 0
ExecutionTime = 13.46 s  ClockTime = 17 s

Time = 421

DILUPBiCGStab:  Solving for omega, Initial residual = 9.97336e-11, Final residual = 9.97336e-11, No Iterations 0
ExecutionTime = 13.48 s  ClockTime = 17 s

Time = 422

DILUPBiCGStab:  Solving for omega, Initial residual = 9.97336e-11, Final residual = 9.97336e-11, No Iterations 0
ExecutionTime = 13.5 s  ClockTime = 17 s

Time = 423

DILUPBiCGStab:  Solving for omega, Initial residual = 9.97336e-11, Final residual = 9.97336e-11, No Iterations 0
ExecutionTime = 13.53 s  ClockTime = 17 s

Time = 424

DILUPBiCGStab:  Solving for omega, Initial residual = 9.97336e-11, Final residual = 9.97336e-11, No Iterations 0
ExecutionTime = 13.55 s  ClockTime = 17 s

Time = 425

DILUPBiCGStab:  Solving for omega, Initial residual = 9.97336e-11, Final residual = 9.97336e-11, No Iterations 0
ExecutionTime = 13.57 s  ClockTime = 17 s

Time = 426

DILUPBiCGStab:  Solving for omega, Initial residual = 9.97336e-11, Final residual = 9.97336e-11, No Iterations 0
ExecutionTime = 13.59 s  ClockTime = 17 s

Time = 427

DILUPBiCGStab:  Solving for omega, Initial residual = 9.97336e-11, Final residual = 9.97336e-11, No Iterations 0
ExecutionTime = 13.63 s  ClockTime = 17 s

Time = 428

DILUPBiCGStab:  Solving for omega, Initial residual = 9.97336e-11, Final residual = 9.97336e-11, No Iterations 0
ExecutionTime = 13.65 s  ClockTime = 17 s

Time = 429

DILUPBiCGStab:  Solving for omega, Initial residual = 9.97336e-11, Final residual = 9.97336e-11, No Iterations 0
ExecutionTime = 13.67 s  ClockTime = 17 s

Time = 430

DILUPBiCGStab:  Solving for omega, Initial residual = 9.97336e-11, Final residual = 9.97336e-11, No Iterations 0
ExecutionTime = 13.69 s  ClockTime = 17 s

Time = 431

DILUPBiCGStab:  Solving for omega, Initial residual = 9.97336e-11, Final residual = 9.97336e-11, No Iterations 0
ExecutionTime = 13.72 s  ClockTime = 17 s

Time = 432

DILUPBiCGStab:  Solving for omega, Initial residual = 9.97336e-11, Final residual = 9.97336e-11, No Iterations 0
ExecutionTime = 13.74 s  ClockTime = 17 s

Time = 433

DILUPBiCGStab:  Solving for omega, Initial residual = 9.97336e-11, Final residual = 9.97336e-11, No Iterations 0
ExecutionTime = 13.76 s  ClockTime = 17 s

Time = 434

DILUPBiCGStab:  Solving for omega, Initial residual = 9.97336e-11, Final residual = 9.97336e-11, No Iterations 0
ExecutionTime = 13.78 s  ClockTime = 17 s

Time = 435

DILUPBiCGStab:  Solving for omega, Initial residual = 9.97336e-11, Final residual = 9.97336e-11, No Iterations 0
ExecutionTime = 13.82 s  ClockTime = 17 s

Time = 436

DILUPBiCGStab:  Solving for omega, Initial residual = 9.97336e-11, Final residual = 9.97336e-11, No Iterations 0
ExecutionTime = 13.84 s  ClockTime = 17 s

Time = 437

DILUPBiCGStab:  Solving for omega, Initial residual = 9.97336e-11, Final residual = 9.97336e-11, No Iterations 0
ExecutionTime = 13.88 s  ClockTime = 17 s

Time = 438

DILUPBiCGStab:  Solving for omega, Initial residual = 9.97336e-11, Final residual = 9.97336e-11, No Iterations 0
ExecutionTime = 13.92 s  ClockTime = 17 s

Time = 439

DILUPBiCGStab:  Solving for omega, Initial residual = 9.97336e-11, Final residual = 9.97336e-11, No Iterations 0
ExecutionTime = 13.95 s  ClockTime = 17 s

Time = 440

DILUPBiCGStab:  Solving for omega, Initial residual = 9.97336e-11, Final residual = 9.97336e-11, No Iterations 0
ExecutionTime = 13.98 s  ClockTime = 17 s

Time = 441

DILUPBiCGStab:  Solving for omega, Initial residual = 9.97336e-11, Final residual = 9.97336e-11, No Iterations 0
ExecutionTime = 14.01 s  ClockTime = 17 s

Time = 442

DILUPBiCGStab:  Solving for omega, Initial residual = 9.97336e-11, Final residual = 9.97336e-11, No Iterations 0
ExecutionTime = 14.04 s  ClockTime = 17 s

Time = 443

DILUPBiCGStab:  Solving for omega, Initial residual = 9.97336e-11, Final residual = 9.97336e-11, No Iterations 0
ExecutionTime = 14.07 s  ClockTime = 18 s

Time = 444

DILUPBiCGStab:  Solving for omega, Initial residual = 9.97336e-11, Final residual = 9.97336e-11, No Iterations 0
ExecutionTime = 14.09 s  ClockTime = 18 s

Time = 445

DILUPBiCGStab:  Solving for omega, Initial residual = 9.97336e-11, Final residual = 9.97336e-11, No Iterations 0
ExecutionTime = 14.12 s  ClockTime = 18 s

Time = 446

DILUPBiCGStab:  Solving for omega, Initial residual = 9.97336e-11, Final residual = 9.97336e-11, No Iterations 0
ExecutionTime = 14.16 s  ClockTime = 18 s

Time = 447

DILUPBiCGStab:  Solving for omega, Initial residual = 9.97336e-11, Final residual = 9.97336e-11, No Iterations 0
ExecutionTime = 14.19 s  ClockTime = 18 s

Time = 448

DILUPBiCGStab:  Solving for omega, Initial residual = 9.97336e-11, Final residual = 9.97336e-11, No Iterations 0
ExecutionTime = 14.21 s  ClockTime = 18 s

Time = 449

DILUPBiCGStab:  Solving for omega, Initial residual = 9.97336e-11, Final residual = 9.97336e-11, No Iterations 0
ExecutionTime = 14.23 s  ClockTime = 18 s

Time = 450

DILUPBiCGStab:  Solving for omega, Initial residual = 9.97336e-11, Final residual = 9.97336e-11, No Iterations 0
ExecutionTime = 14.25 s  ClockTime = 18 s

Time = 451

DILUPBiCGStab:  Solving for omega, Initial residual = 9.97336e-11, Final residual = 9.97336e-11, No Iterations 0
ExecutionTime = 14.28 s  ClockTime = 18 s

Time = 452

DILUPBiCGStab:  Solving for omega, Initial residual = 9.97336e-11, Final residual = 9.97336e-11, No Iterations 0
ExecutionTime = 14.32 s  ClockTime = 18 s

Time = 453

DILUPBiCGStab:  Solving for omega, Initial residual = 9.97336e-11, Final residual = 9.97336e-11, No Iterations 0
ExecutionTime = 14.34 s  ClockTime = 18 s

Time = 454

DILUPBiCGStab:  Solving for omega, Initial residual = 9.97336e-11, Final residual = 9.97336e-11, No Iterations 0
ExecutionTime = 14.37 s  ClockTime = 18 s

Time = 455

DILUPBiCGStab:  Solving for omega, Initial residual = 9.97336e-11, Final residual = 9.97336e-11, No Iterations 0
ExecutionTime = 14.4 s  ClockTime = 18 s

Time = 456

DILUPBiCGStab:  Solving for omega, Initial residual = 9.97336e-11, Final residual = 9.97336e-11, No Iterations 0
ExecutionTime = 14.42 s  ClockTime = 18 s

Time = 457

DILUPBiCGStab:  Solving for omega, Initial residual = 9.97336e-11, Final residual = 9.97336e-11, No Iterations 0
ExecutionTime = 14.45 s  ClockTime = 18 s

Time = 458

DILUPBiCGStab:  Solving for omega, Initial residual = 9.97336e-11, Final residual = 9.97336e-11, No Iterations 0
ExecutionTime = 14.47 s  ClockTime = 18 s

Time = 459

DILUPBiCGStab:  Solving for omega, Initial residual = 9.97336e-11, Final residual = 9.97336e-11, No Iterations 0
ExecutionTime = 14.5 s  ClockTime = 18 s

Time = 460

DILUPBiCGStab:  Solving for omega, Initial residual = 9.97336e-11, Final residual = 9.97336e-11, No Iterations 0
ExecutionTime = 14.52 s  ClockTime = 18 s

Time = 461

DILUPBiCGStab:  Solving for omega, Initial residual = 9.97336e-11, Final residual = 9.97336e-11, No Iterations 0
ExecutionTime = 14.55 s  ClockTime = 18 s

Time = 462

DILUPBiCGStab:  Solving for omega, Initial residual = 9.97336e-11, Final residual = 9.97336e-11, No Iterations 0
ExecutionTime = 14.57 s  ClockTime = 18 s

Time = 463

DILUPBiCGStab:  Solving for omega, Initial residual = 9.97336e-11, Final residual = 9.97336e-11, No Iterations 0
ExecutionTime = 14.59 s  ClockTime = 18 s

Time = 464

DILUPBiCGStab:  Solving for omega, Initial residual = 9.97336e-11, Final residual = 9.97336e-11, No Iterations 0
ExecutionTime = 14.63 s  ClockTime = 18 s

Time = 465

[...]
ExecutionTime = 25.87 s  ClockTime = 32 s

Time = 883

DILUPBiCGStab:  Solving for omega, Initial residual = 9.97336e-11, Final residual = 9.97336e-11, No Iterations 0
ExecutionTime = 25.9 s  ClockTime = 32 s

Time = 884

DILUPBiCGStab:  Solving for omega, Initial residual = 9.97336e-11, Final residual = 9.97336e-11, No Iterations 0
ExecutionTime = 25.92 s  ClockTime = 33 s

Time = 885

DILUPBiCGStab:  Solving for omega, Initial residual = 9.97336e-11, Final residual = 9.97336e-11, No Iterations 0
ExecutionTime = 25.94 s  ClockTime = 33 s

Time = 886

DILUPBiCGStab:  Solving for omega, Initial residual = 9.97336e-11, Final residual = 9.97336e-11, No Iterations 0
ExecutionTime = 25.97 s  ClockTime = 33 s

Time = 887

DILUPBiCGStab:  Solving for omega, Initial residual = 9.97336e-11, Final residual = 9.97336e-11, No Iterations 0
ExecutionTime = 25.99 s  ClockTime = 33 s

Time = 888

DILUPBiCGStab:  Solving for omega, Initial residual = 9.97336e-11, Final residual = 9.97336e-11, No Iterations 0
ExecutionTime = 26.02 s  ClockTime = 33 s

Time = 889

DILUPBiCGStab:  Solving for omega, Initial residual = 9.97336e-11, Final residual = 9.97336e-11, No Iterations 0
ExecutionTime = 26.04 s  ClockTime = 33 s

Time = 890

DILUPBiCGStab:  Solving for omega, Initial residual = 9.97336e-11, Final residual = 9.97336e-11, No Iterations 0
ExecutionTime = 26.06 s  ClockTime = 33 s

Time = 891

DILUPBiCGStab:  Solving for omega, Initial residual = 9.97336e-11, Final residual = 9.97336e-11, No Iterations 0
ExecutionTime = 26.08 s  ClockTime = 33 s

Time = 892

DILUPBiCGStab:  Solving for omega, Initial residual = 9.97336e-11, Final residual = 9.97336e-11, No Iterations 0
ExecutionTime = 26.12 s  ClockTime = 33 s

Time = 893

DILUPBiCGStab:  Solving for omega, Initial residual = 9.97336e-11, Final residual = 9.97336e-11, No Iterations 0
ExecutionTime = 26.14 s  ClockTime = 33 s

Time = 894

DILUPBiCGStab:  Solving for omega, Initial residual = 9.97336e-11, Final residual = 9.97336e-11, No Iterations 0
ExecutionTime = 26.16 s  ClockTime = 33 s

Time = 895

DILUPBiCGStab:  Solving for omega, Initial residual = 9.97336e-11, Final residual = 9.97336e-11, No Iterations 0
ExecutionTime = 26.19 s  ClockTime = 33 s

Time = 896

DILUPBiCGStab:  Solving for omega, Initial residual = 9.97336e-11, Final residual = 9.97336e-11, No Iterations 0
ExecutionTime = 26.21 s  ClockTime = 33 s

Time = 897

DILUPBiCGStab:  Solving for omega, Initial residual = 9.97336e-11, Final residual = 9.97336e-11, No Iterations 0
ExecutionTime = 26.24 s  ClockTime = 33 s

Time = 898

DILUPBiCGStab:  Solving for omega, Initial residual = 9.97336e-11, Final residual = 9.97336e-11, No Iterations 0
ExecutionTime = 26.26 s  ClockTime = 33 s

Time = 899

DILUPBiCGStab:  Solving for omega, Initial residual = 9.97336e-11, Final residual = 9.97336e-11, No Iterations 0
ExecutionTime = 26.29 s  ClockTime = 33 s

Time = 900

DILUPBiCGStab:  Solving for omega, Initial residual = 9.97336e-11, Final residual = 9.97336e-11, No Iterations 0
ExecutionTime = 26.32 s  ClockTime = 33 s

Time = 901

DILUPBiCGStab:  Solving for omega, Initial residual = 9.97336e-11, Final residual = 9.97336e-11, No Iterations 0
ExecutionTime = 26.35 s  ClockTime = 33 s

Time = 902

DILUPBiCGStab:  Solving for omega, Initial residual = 9.97336e-11, Final residual = 9.97336e-11, No Iterations 0
ExecutionTime = 26.37 s  ClockTime = 33 s

Time = 903

DILUPBiCGStab:  Solving for omega, Initial residual = 9.97336e-11, Final residual = 9.97336e-11, No Iterations 0
ExecutionTime = 26.4 s  ClockTime = 33 s

Time = 904

DILUPBiCGStab:  Solving for omega, Initial residual = 9.97336e-11, Final residual = 9.97336e-11, No Iterations 0
ExecutionTime = 26.42 s  ClockTime = 33 s

Time = 905

DILUPBiCGStab:  Solving for omega, Initial residual = 9.97336e-11, Final residual = 9.97336e-11, No Iterations 0
ExecutionTime = 26.45 s  ClockTime = 33 s

Time = 906

DILUPBiCGStab:  Solving for omega, Initial residual = 9.97336e-11, Final residual = 9.97336e-11, No Iterations 0
ExecutionTime = 26.48 s  ClockTime = 33 s

Time = 907

DILUPBiCGStab:  Solving for omega, Initial residual = 9.97336e-11, Final residual = 9.97336e-11, No Iterations 0
ExecutionTime = 26.5 s  ClockTime = 33 s

Time = 908

DILUPBiCGStab:  Solving for omega, Initial residual = 9.97336e-11, Final residual = 9.97336e-11, No Iterations 0
ExecutionTime = 26.52 s  ClockTime = 33 s

Time = 909

DILUPBiCGStab:  Solving for omega, Initial residual = 9.97336e-11, Final residual = 9.97336e-11, No Iterations 0
ExecutionTime = 26.54 s  ClockTime = 33 s

Time = 910

DILUPBiCGStab:  Solving for omega, Initial residual = 9.97336e-11, Final residual = 9.97336e-11, No Iterations 0
ExecutionTime = 26.58 s  ClockTime = 33 s

Time = 911

DILUPBiCGStab:  Solving for omega, Initial residual = 9.97336e-11, Final residual = 9.97336e-11, No Iterations 0
ExecutionTime = 26.6 s  ClockTime = 33 s

Time = 912

DILUPBiCGStab:  Solving for omega, Initial residual = 9.97336e-11, Final residual = 9.97336e-11, No Iterations 0
ExecutionTime = 26.62 s  ClockTime = 33 s

Time = 913

DILUPBiCGStab:  Solving for omega, Initial residual = 9.97336e-11, Final residual = 9.97336e-11, No Iterations 0
ExecutionTime = 26.65 s  ClockTime = 34 s

Time = 914

DILUPBiCGStab:  Solving for omega, Initial residual = 9.97336e-11, Final residual = 9.97336e-11, No Iterations 0
ExecutionTime = 26.67 s  ClockTime = 34 s

Time = 915

DILUPBiCGStab:  Solving for omega, Initial residual = 9.97336e-11, Final residual = 9.97336e-11, No Iterations 0
ExecutionTime = 26.7 s  ClockTime = 34 s

Time = 916

DILUPBiCGStab:  Solving for omega, Initial residual = 9.97336e-11, Final residual = 9.97336e-11, No Iterations 0
ExecutionTime = 26.72 s  ClockTime = 34 s

Time = 917

DILUPBiCGStab:  Solving for omega, Initial residual = 9.97336e-11, Final residual = 9.97336e-11, No Iterations 0
ExecutionTime = 26.74 s  ClockTime = 34 s

Time = 918

DILUPBiCGStab:  Solving for omega, Initial residual = 9.97336e-11, Final residual = 9.97336e-11, No Iterations 0
ExecutionTime = 26.76 s  ClockTime = 34 s

Time = 919

DILUPBiCGStab:  Solving for omega, Initial residual = 9.97336e-11, Final residual = 9.97336e-11, No Iterations 0
ExecutionTime = 26.79 s  ClockTime = 34 s

Time = 920

DILUPBiCGStab:  Solving for omega, Initial residual = 9.97336e-11, Final residual = 9.97336e-11, No Iterations 0
ExecutionTime = 26.81 s  ClockTime = 34 s

Time = 921

DILUPBiCGStab:  Solving for omega, Initial residual = 9.97336e-11, Final residual = 9.97336e-11, No Iterations 0
ExecutionTime = 26.84 s  ClockTime = 34 s

Time = 922

DILUPBiCGStab:  Solving for omega, Initial residual = 9.97336e-11, Final residual = 9.97336e-11, No Iterations 0
ExecutionTime = 26.88 s  ClockTime = 34 s

Time = 923

DILUPBiCGStab:  Solving for omega, Initial residual = 9.97336e-11, Final residual = 9.97336e-11, No Iterations 0
ExecutionTime = 26.9 s  ClockTime = 34 s

Time = 924

DILUPBiCGStab:  Solving for omega, Initial residual = 9.97336e-11, Final residual = 9.97336e-11, No Iterations 0
ExecutionTime = 26.94 s  ClockTime = 34 s

Time = 925

DILUPBiCGStab:  Solving for omega, Initial residual = 9.97336e-11, Final residual = 9.97336e-11, No Iterations 0
ExecutionTime = 26.97 s  ClockTime = 34 s

Time = 926

DILUPBiCGStab:  Solving for omega, Initial residual = 9.97336e-11, Final residual = 9.97336e-11, No Iterations 0
ExecutionTime = 27 s  ClockTime = 34 s

Time = 927

DILUPBiCGStab:  Solving for omega, Initial residual = 9.97336e-11, Final residual = 9.97336e-11, No Iterations 0
ExecutionTime = 27.02 s  ClockTime = 34 s

Time = 928

DILUPBiCGStab:  Solving for omega, Initial residual = 9.97336e-11, Final residual = 9.97336e-11, No Iterations 0
ExecutionTime = 27.04 s  ClockTime = 34 s

Time = 929

DILUPBiCGStab:  Solving for omega, Initial residual = 9.97336e-11, Final residual = 9.97336e-11, No Iterations 0
ExecutionTime = 27.07 s  ClockTime = 34 s

Time = 930

DILUPBiCGStab:  Solving for omega, Initial residual = 9.97336e-11, Final residual = 9.97336e-11, No Iterations 0
ExecutionTime = 27.1 s  ClockTime = 34 s

Time = 931

DILUPBiCGStab:  Solving for omega, Initial residual = 9.97336e-11, Final residual = 9.97336e-11, No Iterations 0
ExecutionTime = 27.12 s  ClockTime = 34 s

Time = 932

DILUPBiCGStab:  Solving for omega, Initial residual = 9.97336e-11, Final residual = 9.97336e-11, No Iterations 0
ExecutionTime = 27.15 s  ClockTime = 34 s

Time = 933

DILUPBiCGStab:  Solving for omega, Initial residual = 9.97336e-11, Final residual = 9.97336e-11, No Iterations 0
ExecutionTime = 27.17 s  ClockTime = 34 s

Time = 934

DILUPBiCGStab:  Solving for omega, Initial residual = 9.97336e-11, Final residual = 9.97336e-11, No Iterations 0
ExecutionTime = 27.19 s  ClockTime = 34 s

Time = 935

DILUPBiCGStab:  Solving for omega, Initial residual = 9.97336e-11, Final residual = 9.97336e-11, No Iterations 0
ExecutionTime = 27.22 s  ClockTime = 34 s

Time = 936

DILUPBiCGStab:  Solving for omega, Initial residual = 9.97336e-11, Final residual = 9.97336e-11, No Iterations 0
ExecutionTime = 27.24 s  ClockTime = 34 s

Time = 937

DILUPBiCGStab:  Solving for omega, Initial residual = 9.97336e-11, Final residual = 9.97336e-11, No Iterations 0
ExecutionTime = 27.27 s  ClockTime = 34 s

Time = 938

DILUPBiCGStab:  Solving for omega, Initial residual = 9.97336e-11, Final residual = 9.97336e-11, No Iterations 0
ExecutionTime = 27.3 s  ClockTime = 34 s

Time = 939

DILUPBiCGStab:  Solving for omega, Initial residual = 9.97336e-11, Final residual = 9.97336e-11, No Iterations 0
ExecutionTime = 27.32 s  ClockTime = 34 s

Time = 940

DILUPBiCGStab:  Solving for omega, Initial residual = 9.97336e-11, Final residual = 9.97336e-11, No Iterations 0
ExecutionTime = 27.35 s  ClockTime = 34 s

Time = 941

DILUPBiCGStab:  Solving for omega, Initial residual = 9.97336e-11, Final residual = 9.97336e-11, No Iterations 0
ExecutionTime = 27.37 s  ClockTime = 34 s

Time = 942

DILUPBiCGStab:  Solving for omega, Initial residual = 9.97336e-11, Final residual = 9.97336e-11, No Iterations 0
ExecutionTime = 27.39 s  ClockTime = 35 s

Time = 943

DILUPBiCGStab:  Solving for omega, Initial residual = 9.97336e-11, Final residual = 9.97336e-11, No Iterations 0
ExecutionTime = 27.42 s  ClockTime = 35 s

Time = 944

DILUPBiCGStab:  Solving for omega, Initial residual = 9.97336e-11, Final residual = 9.97336e-11, No Iterations 0
ExecutionTime = 27.44 s  ClockTime = 35 s

Time = 945

DILUPBiCGStab:  Solving for omega, Initial residual = 9.97336e-11, Final residual = 9.97336e-11, No Iterations 0
ExecutionTime = 27.47 s  ClockTime = 35 s

Time = 946

DILUPBiCGStab:  Solving for omega, Initial residual = 9.97336e-11, Final residual = 9.97336e-11, No Iterations 0
ExecutionTime = 27.49 s  ClockTime = 35 s

Time = 947

DILUPBiCGStab:  Solving for omega, Initial residual = 9.97336e-11, Final residual = 9.97336e-11, No Iterations 0
ExecutionTime = 27.51 s  ClockTime = 35 s

Time = 948

DILUPBiCGStab:  Solving for omega, Initial residual = 9.97336e-11, Final residual = 9.97336e-11, No Iterations 0
ExecutionTime = 27.54 s  ClockTime = 35 s

Time = 949

DILUPBiCGStab:  Solving for omega, Initial residual = 9.97336e-11, Final residual = 9.97336e-11, No Iterations 0
ExecutionTime = 27.56 s  ClockTime = 35 s

Time = 950

DILUPBiCGStab:  Solving for omega, Initial residual = 9.97336e-11, Final residual = 9.97336e-11, No Iterations 0
ExecutionTime = 27.6 s  ClockTime = 35 s

Time = 951

DILUPBiCGStab:  Solving for omega, Initial residual = 9.97336e-11, Final residual = 9.97336e-11, No Iterations 0
ExecutionTime = 27.62 s  ClockTime = 35 s

Time = 952

DILUPBiCGStab:  Solving for omega, Initial residual = 9.97336e-11, Final residual = 9.97336e-11, No Iterations 0
ExecutionTime = 27.65 s  ClockTime = 35 s

Time = 953

DILUPBiCGStab:  Solving for omega, Initial residual = 9.97336e-11, Final residual = 9.97336e-11, No Iterations 0
ExecutionTime = 27.67 s  ClockTime = 35 s

Time = 954

DILUPBiCGStab:  Solving for omega, Initial residual = 9.97336e-11, Final residual = 9.97336e-11, No Iterations 0
ExecutionTime = 27.7 s  ClockTime = 35 s

Time = 955

DILUPBiCGStab:  Solving for omega, Initial residual = 9.97336e-11, Final residual = 9.97336e-11, No Iterations 0
ExecutionTime = 27.72 s  ClockTime = 35 s

Time = 956

DILUPBiCGStab:  Solving for omega, Initial residual = 9.97336e-11, Final residual = 9.97336e-11, No Iterations 0
ExecutionTime = 27.74 s  ClockTime = 35 s

Time = 957

DILUPBiCGStab:  Solving for omega, Initial residual = 9.97336e-11, Final residual = 9.97336e-11, No Iterations 0
ExecutionTime = 27.76 s  ClockTime = 35 s

Time = 958

DILUPBiCGStab:  Solving for omega, Initial residual = 9.97336e-11, Final residual = 9.97336e-11, No Iterations 0
ExecutionTime = 27.79 s  ClockTime = 35 s

Time = 959

DILUPBiCGStab:  Solving for omega, Initial residual = 9.97336e-11, Final residual = 9.97336e-11, No Iterations 0
ExecutionTime = 27.81 s  ClockTime = 35 s

Time = 960

DILUPBiCGStab:  Solving for omega, Initial residual = 9.97336e-11, Final residual = 9.97336e-11, No Iterations 0
ExecutionTime = 27.83 s  ClockTime = 35 s

Time = 961

DILUPBiCGStab:  Solving for omega, Initial residual = 9.97336e-11, Final residual = 9.97336e-11, No Iterations 0
ExecutionTime = 27.86 s  ClockTime = 35 s

Time = 962

DILUPBiCGStab:  Solving for omega, Initial residual = 9.97336e-11, Final residual = 9.97336e-11, No Iterations 0
ExecutionTime = 27.88 s  ClockTime = 35 s

Time = 963

DILUPBiCGStab:  Solving for omega, Initial residual = 9.97336e-11, Final residual = 9.97336e-11, No Iterations 0
ExecutionTime = 27.9 s  ClockTime = 35 s

Time = 964

DILUPBiCGStab:  Solving for omega, Initial residual = 9.97336e-11, Final residual = 9.97336e-11, No Iterations 0
ExecutionTime = 27.94 s  ClockTime = 35 s

Time = 965

DILUPBiCGStab:  Solving for omega, Initial residual = 9.97336e-11, Final residual = 9.97336e-11, No Iterations 0
ExecutionTime = 27.96 s  ClockTime = 35 s

Time = 966

DILUPBiCGStab:  Solving for omega, Initial residual = 9.97336e-11, Final residual = 9.97336e-11, No Iterations 0
ExecutionTime = 27.98 s  ClockTime = 35 s

Time = 967

DILUPBiCGStab:  Solving for omega, Initial residual = 9.97336e-11, Final residual = 9.97336e-11, No Iterations 0
ExecutionTime = 28.01 s  ClockTime = 35 s

Time = 968

DILUPBiCGStab:  Solving for omega, Initial residual = 9.97336e-11, Final residual = 9.97336e-11, No Iterations 0
ExecutionTime = 28.03 s  ClockTime = 35 s

Time = 969

DILUPBiCGStab:  Solving for omega, Initial residual = 9.97336e-11, Final residual = 9.97336e-11, No Iterations 0
ExecutionTime = 28.05 s  ClockTime = 35 s

Time = 970

DILUPBiCGStab:  Solving for omega, Initial residual = 9.97336e-11, Final residual = 9.97336e-11, No Iterations 0
ExecutionTime = 28.08 s  ClockTime = 35 s

Time = 971

DILUPBiCGStab:  Solving for omega, Initial residual = 9.97336e-11, Final residual = 9.97336e-11, No Iterations 0
ExecutionTime = 28.1 s  ClockTime = 35 s

Time = 972

DILUPBiCGStab:  Solving for omega, Initial residual = 9.97336e-11, Final residual = 9.97336e-11, No Iterations 0
ExecutionTime = 28.13 s  ClockTime = 36 s

Time = 973

DILUPBiCGStab:  Solving for omega, Initial residual = 9.97336e-11, Final residual = 9.97336e-11, No Iterations 0
ExecutionTime = 28.15 s  ClockTime = 36 s

Time = 974

DILUPBiCGStab:  Solving for omega, Initial residual = 9.97336e-11, Final residual = 9.97336e-11, No Iterations 0
ExecutionTime = 28.18 s  ClockTime = 36 s

Time = 975

DILUPBiCGStab:  Solving for omega, Initial residual = 9.97336e-11, Final residual = 9.97336e-11, No Iterations 0
ExecutionTime = 28.21 s  ClockTime = 36 s

Time = 976

DILUPBiCGStab:  Solving for omega, Initial residual = 9.97336e-11, Final residual = 9.97336e-11, No Iterations 0
ExecutionTime = 28.23 s  ClockTime = 36 s

Time = 977

DILUPBiCGStab:  Solving for omega, Initial residual = 9.97336e-11, Final residual = 9.97336e-11, No Iterations 0
ExecutionTime = 28.25 s  ClockTime = 36 s

Time = 978

DILUPBiCGStab:  Solving for omega, Initial residual = 9.97336e-11, Final residual = 9.97336e-11, No Iterations 0
ExecutionTime = 28.28 s  ClockTime = 36 s

Time = 979

DILUPBiCGStab:  Solving for omega, Initial residual = 9.97336e-11, Final residual = 9.97336e-11, No Iterations 0
ExecutionTime = 28.31 s  ClockTime = 36 s

Time = 980

DILUPBiCGStab:  Solving for omega, Initial residual = 9.97336e-11, Final residual = 9.97336e-11, No Iterations 0
ExecutionTime = 28.34 s  ClockTime = 36 s

Time = 981

DILUPBiCGStab:  Solving for omega, Initial residual = 9.97336e-11, Final residual = 9.97336e-11, No Iterations 0
ExecutionTime = 28.37 s  ClockTime = 36 s

Time = 982

DILUPBiCGStab:  Solving for omega, Initial residual = 9.97336e-11, Final residual = 9.97336e-11, No Iterations 0
ExecutionTime = 28.39 s  ClockTime = 36 s

Time = 983

DILUPBiCGStab:  Solving for omega, Initial residual = 9.97336e-11, Final residual = 9.97336e-11, No Iterations 0
ExecutionTime = 28.41 s  ClockTime = 36 s

Time = 984

DILUPBiCGStab:  Solving for omega, Initial residual = 9.97336e-11, Final residual = 9.97336e-11, No Iterations 0
ExecutionTime = 28.44 s  ClockTime = 36 s

Time = 985

DILUPBiCGStab:  Solving for omega, Initial residual = 9.97336e-11, Final residual = 9.97336e-11, No Iterations 0
ExecutionTime = 28.47 s  ClockTime = 36 s

Time = 986

DILUPBiCGStab:  Solving for omega, Initial residual = 9.97336e-11, Final residual = 9.97336e-11, No Iterations 0
ExecutionTime = 28.49 s  ClockTime = 36 s

Time = 987

DILUPBiCGStab:  Solving for omega, Initial residual = 9.97336e-11, Final residual = 9.97336e-11, No Iterations 0
ExecutionTime = 28.52 s  ClockTime = 36 s

Time = 988

DILUPBiCGStab:  Solving for omega, Initial residual = 9.97336e-11, Final residual = 9.97336e-11, No Iterations 0
ExecutionTime = 28.55 s  ClockTime = 36 s

Time = 989

DILUPBiCGStab:  Solving for omega, Initial residual = 9.97336e-11, Final residual = 9.97336e-11, No Iterations 0
ExecutionTime = 28.57 s  ClockTime = 36 s

Time = 990

DILUPBiCGStab:  Solving for omega, Initial residual = 9.97336e-11, Final residual = 9.97336e-11, No Iterations 0
ExecutionTime = 28.61 s  ClockTime = 36 s

Time = 991

DILUPBiCGStab:  Solving for omega, Initial residual = 9.97336e-11, Final residual = 9.97336e-11, No Iterations 0
ExecutionTime = 28.63 s  ClockTime = 36 s

Time = 992

DILUPBiCGStab:  Solving for omega, Initial residual = 9.97336e-11, Final residual = 9.97336e-11, No Iterations 0
ExecutionTime = 28.65 s  ClockTime = 36 s

Time = 993

DILUPBiCGStab:  Solving for omega, Initial residual = 9.97336e-11, Final residual = 9.97336e-11, No Iterations 0
ExecutionTime = 28.68 s  ClockTime = 36 s

Time = 994

DILUPBiCGStab:  Solving for omega, Initial residual = 9.97336e-11, Final residual = 9.97336e-11, No Iterations 0
ExecutionTime = 28.71 s  ClockTime = 36 s

Time = 995

DILUPBiCGStab:  Solving for omega, Initial residual = 9.97336e-11, Final residual = 9.97336e-11, No Iterations 0
ExecutionTime = 28.73 s  ClockTime = 36 s

Time = 996

DILUPBiCGStab:  Solving for omega, Initial residual = 9.97336e-11, Final residual = 9.97336e-11, No Iterations 0
ExecutionTime = 28.76 s  ClockTime = 36 s

Time = 997

DILUPBiCGStab:  Solving for omega, Initial residual = 9.97336e-11, Final residual = 9.97336e-11, No Iterations 0
ExecutionTime = 28.78 s  ClockTime = 36 s

Time = 998

DILUPBiCGStab:  Solving for omega, Initial residual = 9.97336e-11, Final residual = 9.97336e-11, No Iterations 0
ExecutionTime = 28.81 s  ClockTime = 36 s

Time = 999

DILUPBiCGStab:  Solving for omega, Initial residual = 9.97336e-11, Final residual = 9.97336e-11, No Iterations 0
ExecutionTime = 28.9 s  ClockTime = 37 s

Time = 1000

DILUPBiCGStab:  Solving for omega, Initial residual = 9.97336e-11, Final residual = 9.97336e-11, No Iterations 0
ExecutionTime = 29.03 s  ClockTime = 38 s

yPlus yPlus1 write:
    writing field yPlus
    patch bottom y+ : min = 0.0463564, max = 1.33179, average = 0.672743
End

Finalising parallel run
