/*---------------------------------------------------------------------------*\
| =========                 |                                                 |
| \\      /  F ield         | OpenFOAM: The Open Source CFD Toolbox           |
|  \\    /   O peration     | Version:  2506                                  |
|   \\  /    A nd           | Website:  www.openfoam.com                      |
|    \\/     M anipulation  |                                                 |
\*---------------------------------------------------------------------------*/
Build  : _615aae61-20250627 OPENFOAM=2506 version=2506
Arch   : "LSB;label=32;scalar=64"
Exec   : frozenFoam -parallel
Date   : Oct 08 2025
Time   : 15:31:20
Host   : 69da72c700c0
PID    : 869
I/O    : uncollated
Case   : /home/openfoam/OpenFOAM/openfoam-v2506/run/h42_frozensparse
nProcs : 4
Hosts  :
(
    (69da72c700c0 4)
)
Pstream initialized with:
    node communication : off [type=host] (4 ranks, 1 nodes)
    topology controls  : none
    consensus exchange : 0 (tuning: 0)
    exchange algorithm : 0
    commsType          : nonBlocking
    polling iterations : 0
trapFpe: Floating point exception trapping enabled (FOAM_SIGFPE).
fileModificationChecking : Monitoring run-time modified files using timeStampMaster (fileModificationSkew 5, maxFileModificationPolls 20)
allowSystemOperations : Allowing user-supplied system call operations

// * * * * * * * * * * * * * * * * * * * * * * * * * * * * * * * * * * * * * //
Create time

Create mesh for time = 0


SIMPLE: no convergence criteria found. Calculations will run for 6000 steps.

Reading field p

Reading field U

Reading/calculating face flux field phi

Selecting incompressible transport model Newtonian
Selecting turbulence model type RAS
Selecting RAS turbulence model frozenSST
Selecting patchDistMethod meshWave
RAS
{
    RASModel        frozenSST;
    turbulence      on;
    printCoeffs     on;
    alphaK1         0.85;
    alphaK2         1;
    alphaOmega1     0.5;
    alphaOmega2     0.856;
    gamma1          0.555556;
    gamma2          0.44;
    beta1           0.075;
    beta2           0.0828;
    betaStar        0.09;
    a1              0.31;
    b1              1;
    c1              10;
    F3              false;
    decayControl    false;
    kInf            0;
    omegaInf        0;
}

No MRF models present

No finite volume options present

Starting time loop

--> FOAM Warning : 
    From void Foam::timeControl::read(const Foam::dictionary&)
    in file db/functionObjects/timeControl/timeControl.C at line 131
    Reading "system/controlDict/functions/yPlus1" at line 55
    Found deprecated 'outputControl'
    Use 'writeControl' with 'writeInterval'
Time = 1

DILUPBiCGStab:  Solving for omega, Initial residual = 0.015603, Final residual = 7.7614e-11, No Iterations 7
ExecutionTime = 0.5 s  ClockTime = 1 s

Time = 2

DILUPBiCGStab:  Solving for omega, Initial residual = 0.161432, Final residual = 8.25379e-11, No Iterations 7
ExecutionTime = 0.55 s  ClockTime = 1 s

Time = 3

DILUPBiCGStab:  Solving for omega, Initial residual = 0.00767064, Final residual = 7.83929e-11, No Iterations 7
ExecutionTime = 0.6 s  ClockTime = 1 s

Time = 4

DILUPBiCGStab:  Solving for omega, Initial residual = 0.00696781, Final residual = 6.48783e-11, No Iterations 7
ExecutionTime = 0.66 s  ClockTime = 1 s

Time = 5

DILUPBiCGStab:  Solving for omega, Initial residual = 0.00292302, Final residual = 8.48484e-11, No Iterations 7
ExecutionTime = 0.71 s  ClockTime = 1 s

Time = 6

DILUPBiCGStab:  Solving for omega, Initial residual = 0.0020548, Final residual = 6.04372e-11, No Iterations 8
ExecutionTime = 0.76 s  ClockTime = 1 s

Time = 7

DILUPBiCGStab:  Solving for omega, Initial residual = 0.00107567, Final residual = 4.89371e-11, No Iterations 8
ExecutionTime = 0.82 s  ClockTime = 1 s

Time = 8

DILUPBiCGStab:  Solving for omega, Initial residual = 0.000677492, Final residual = 8.55429e-11, No Iterations 8
ExecutionTime = 0.87 s  ClockTime = 1 s

Time = 9

DILUPBiCGStab:  Solving for omega, Initial residual = 0.000392425, Final residual = 8.34382e-11, No Iterations 8
ExecutionTime = 0.93 s  ClockTime = 1 s

Time = 10

DILUPBiCGStab:  Solving for omega, Initial residual = 0.000246888, Final residual = 8.30477e-11, No Iterations 8
ExecutionTime = 0.98 s  ClockTime = 1 s

Time = 11

DILUPBiCGStab:  Solving for omega, Initial residual = 0.00015632, Final residual = 7.59067e-11, No Iterations 8
ExecutionTime = 1.02 s  ClockTime = 1 s

Time = 12

DILUPBiCGStab:  Solving for omega, Initial residual = 0.000105809, Final residual = 7.50568e-11, No Iterations 8
ExecutionTime = 1.06 s  ClockTime = 1 s

Time = 13

DILUPBiCGStab:  Solving for omega, Initial residual = 7.52729e-05, Final residual = 6.53506e-11, No Iterations 8
ExecutionTime = 1.1 s  ClockTime = 1 s

Time = 14

DILUPBiCGStab:  Solving for omega, Initial residual = 5.73683e-05, Final residual = 6.63586e-11, No Iterations 7
ExecutionTime = 1.13 s  ClockTime = 1 s

Time = 15

DILUPBiCGStab:  Solving for omega, Initial residual = 4.6273e-05, Final residual = 6.45956e-11, No Iterations 7
ExecutionTime = 1.18 s  ClockTime = 1 s

Time = 16

DILUPBiCGStab:  Solving for omega, Initial residual = 3.93281e-05, Final residual = 6.11178e-11, No Iterations 7
ExecutionTime = 1.22 s  ClockTime = 1 s

Time = 17

DILUPBiCGStab:  Solving for omega, Initial residual = 3.46977e-05, Final residual = 5.5785e-11, No Iterations 7
ExecutionTime = 1.26 s  ClockTime = 1 s

Time = 18

DILUPBiCGStab:  Solving for omega, Initial residual = 3.14983e-05, Final residual = 4.95223e-11, No Iterations 7
ExecutionTime = 1.31 s  ClockTime = 1 s

Time = 19

DILUPBiCGStab:  Solving for omega, Initial residual = 2.91343e-05, Final residual = 4.43578e-11, No Iterations 7
ExecutionTime = 1.35 s  ClockTime = 1 s

Time = 20

DILUPBiCGStab:  Solving for omega, Initial residual = 2.72876e-05, Final residual = 9.16201e-11, No Iterations 7
ExecutionTime = 1.4 s  ClockTime = 1 s

Time = 21

DILUPBiCGStab:  Solving for omega, Initial residual = 2.576e-05, Final residual = 7.7293e-11, No Iterations 7
ExecutionTime = 1.44 s  ClockTime = 2 s

Time = 22

DILUPBiCGStab:  Solving for omega, Initial residual = 2.44755e-05, Final residual = 6.26748e-11, No Iterations 7
ExecutionTime = 1.48 s  ClockTime = 2 s

Time = 23

DILUPBiCGStab:  Solving for omega, Initial residual = 2.33289e-05, Final residual = 5.33773e-11, No Iterations 7
ExecutionTime = 1.53 s  ClockTime = 2 s

Time = 24

DILUPBiCGStab:  Solving for omega, Initial residual = 2.23051e-05, Final residual = 9.43764e-11, No Iterations 6
ExecutionTime = 1.57 s  ClockTime = 2 s

Time = 25

DILUPBiCGStab:  Solving for omega, Initial residual = 2.13712e-05, Final residual = 8.49781e-11, No Iterations 6
ExecutionTime = 1.61 s  ClockTime = 2 s

Time = 26

DILUPBiCGStab:  Solving for omega, Initial residual = 2.05171e-05, Final residual = 7.57432e-11, No Iterations 6
ExecutionTime = 1.65 s  ClockTime = 2 s

Time = 27

DILUPBiCGStab:  Solving for omega, Initial residual = 1.97232e-05, Final residual = 6.94854e-11, No Iterations 6
ExecutionTime = 1.69 s  ClockTime = 2 s

Time = 28

DILUPBiCGStab:  Solving for omega, Initial residual = 1.89906e-05, Final residual = 6.51193e-11, No Iterations 6
ExecutionTime = 1.74 s  ClockTime = 2 s

Time = 29

DILUPBiCGStab:  Solving for omega, Initial residual = 1.83062e-05, Final residual = 6.1325e-11, No Iterations 6
ExecutionTime = 1.78 s  ClockTime = 2 s

Time = 30

DILUPBiCGStab:  Solving for omega, Initial residual = 1.76691e-05, Final residual = 5.775e-11, No Iterations 6
ExecutionTime = 1.83 s  ClockTime = 2 s

Time = 31

DILUPBiCGStab:  Solving for omega, Initial residual = 1.70723e-05, Final residual = 5.41924e-11, No Iterations 6
ExecutionTime = 1.87 s  ClockTime = 2 s

Time = 32

DILUPBiCGStab:  Solving for omega, Initial residual = 1.65139e-05, Final residual = 5.08466e-11, No Iterations 6
ExecutionTime = 1.91 s  ClockTime = 2 s

Time = 33

DILUPBiCGStab:  Solving for omega, Initial residual = 1.5989e-05, Final residual = 4.7871e-11, No Iterations 6
ExecutionTime = 1.95 s  ClockTime = 2 s

Time = 34

DILUPBiCGStab:  Solving for omega, Initial residual = 1.54959e-05, Final residual = 4.54395e-11, No Iterations 6
ExecutionTime = 1.99 s  ClockTime = 2 s

Time = 35

DILUPBiCGStab:  Solving for omega, Initial residual = 1.50318e-05, Final residual = 4.26272e-11, No Iterations 6
ExecutionTime = 2.03 s  ClockTime = 2 s

Time = 36

DILUPBiCGStab:  Solving for omega, Initial residual = 1.45947e-05, Final residual = 3.98633e-11, No Iterations 6
ExecutionTime = 2.09 s  ClockTime = 2 s

Time = 37

DILUPBiCGStab:  Solving for omega, Initial residual = 1.41817e-05, Final residual = 8.73777e-11, No Iterations 6
ExecutionTime = 2.13 s  ClockTime = 2 s

Time = 38

DILUPBiCGStab:  Solving for omega, Initial residual = 1.37905e-05, Final residual = 8.21581e-11, No Iterations 6
ExecutionTime = 2.17 s  ClockTime = 2 s

Time = 39

DILUPBiCGStab:  Solving for omega, Initial residual = 1.34189e-05, Final residual = 8.55304e-11, No Iterations 6
ExecutionTime = 2.23 s  ClockTime = 2 s

Time = 40

DILUPBiCGStab:  Solving for omega, Initial residual = 1.3066e-05, Final residual = 8.181e-11, No Iterations 6
ExecutionTime = 2.27 s  ClockTime = 2 s

Time = 41

DILUPBiCGStab:  Solving for omega, Initial residual = 1.27311e-05, Final residual = 7.91314e-11, No Iterations 6
ExecutionTime = 2.32 s  ClockTime = 2 s

Time = 42

DILUPBiCGStab:  Solving for omega, Initial residual = 1.24132e-05, Final residual = 7.74622e-11, No Iterations 6
ExecutionTime = 2.37 s  ClockTime = 3 s

Time = 43

DILUPBiCGStab:  Solving for omega, Initial residual = 1.2111e-05, Final residual = 7.36333e-11, No Iterations 6
ExecutionTime = 2.44 s  ClockTime = 3 s

Time = 44

DILUPBiCGStab:  Solving for omega, Initial residual = 1.18235e-05, Final residual = 6.90724e-11, No Iterations 6
ExecutionTime = 2.5 s  ClockTime = 3 s

Time = 45

DILUPBiCGStab:  Solving for omega, Initial residual = 1.15495e-05, Final residual = 6.43737e-11, No Iterations 6
ExecutionTime = 2.54 s  ClockTime = 3 s

Time = 46

DILUPBiCGStab:  Solving for omega, Initial residual = 1.12881e-05, Final residual = 6.37232e-11, No Iterations 6
ExecutionTime = 2.59 s  ClockTime = 3 s

Time = 47

DILUPBiCGStab:  Solving for omega, Initial residual = 1.10383e-05, Final residual = 6.38269e-11, No Iterations 6
ExecutionTime = 2.63 s  ClockTime = 3 s

Time = 48

DILUPBiCGStab:  Solving for omega, Initial residual = 1.07992e-05, Final residual = 6.09482e-11, No Iterations 6
ExecutionTime = 2.68 s  ClockTime = 3 s

Time = 49

DILUPBiCGStab:  Solving for omega, Initial residual = 1.057e-05, Final residual = 5.91966e-11, No Iterations 6
ExecutionTime = 2.73 s  ClockTime = 3 s

Time = 50

DILUPBiCGStab:  Solving for omega, Initial residual = 1.03499e-05, Final residual = 5.70318e-11, No Iterations 6
ExecutionTime = 2.78 s  ClockTime = 3 s

Time = 51

DILUPBiCGStab:  Solving for omega, Initial residual = 1.01384e-05, Final residual = 5.50416e-11, No Iterations 6
ExecutionTime = 2.83 s  ClockTime = 3 s

Time = 52

DILUPBiCGStab:  Solving for omega, Initial residual = 9.93465e-06, Final residual = 5.31488e-11, No Iterations 6
ExecutionTime = 2.87 s  ClockTime = 3 s

Time = 53

DILUPBiCGStab:  Solving for omega, Initial residual = 9.73815e-06, Final residual = 5.1488e-11, No Iterations 6
ExecutionTime = 2.9 s  ClockTime = 3 s

Time = 54

DILUPBiCGStab:  Solving for omega, Initial residual = 9.54827e-06, Final residual = 4.99479e-11, No Iterations 6
ExecutionTime = 2.94 s  ClockTime = 3 s

Time = 55

DILUPBiCGStab:  Solving for omega, Initial residual = 9.3644e-06, Final residual = 4.85142e-11, No Iterations 6
ExecutionTime = 2.97 s  ClockTime = 3 s

Time = 56

DILUPBiCGStab:  Solving for omega, Initial residual = 9.18604e-06, Final residual = 4.71089e-11, No Iterations 6
ExecutionTime = 3.02 s  ClockTime = 3 s

Time = 57

DILUPBiCGStab:  Solving for omega, Initial residual = 9.01266e-06, Final residual = 4.58034e-11, No Iterations 6
ExecutionTime = 3.06 s  ClockTime = 3 s

Time = 58

DILUPBiCGStab:  Solving for omega, Initial residual = 8.84378e-06, Final residual = 4.46648e-11, No Iterations 6
ExecutionTime = 3.09 s  ClockTime = 3 s

Time = 59

DILUPBiCGStab:  Solving for omega, Initial residual = 8.67893e-06, Final residual = 4.3623e-11, No Iterations 6
ExecutionTime = 3.13 s  ClockTime = 3 s

Time = 60

DILUPBiCGStab:  Solving for omega, Initial residual = 8.51776e-06, Final residual = 4.25498e-11, No Iterations 6
ExecutionTime = 3.16 s  ClockTime = 4 s

Time = 61

DILUPBiCGStab:  Solving for omega, Initial residual = 8.36e-06, Final residual = 4.16636e-11, No Iterations 6
ExecutionTime = 3.21 s  ClockTime = 4 s

Time = 62

DILUPBiCGStab:  Solving for omega, Initial residual = 8.20542e-06, Final residual = 4.11323e-11, No Iterations 6
ExecutionTime = 3.25 s  ClockTime = 4 s

Time = 63

DILUPBiCGStab:  Solving for omega, Initial residual = 8.05389e-06, Final residual = 4.08013e-11, No Iterations 6
ExecutionTime = 3.29 s  ClockTime = 4 s

Time = 64

DILUPBiCGStab:  Solving for omega, Initial residual = 7.90531e-06, Final residual = 4.04573e-11, No Iterations 6
ExecutionTime = 3.34 s  ClockTime = 4 s

Time = 65

DILUPBiCGStab:  Solving for omega, Initial residual = 7.75966e-06, Final residual = 3.9899e-11, No Iterations 6
ExecutionTime = 3.37 s  ClockTime = 4 s

Time = 66

DILUPBiCGStab:  Solving for omega, Initial residual = 7.61692e-06, Final residual = 9.99897e-11, No Iterations 5
ExecutionTime = 3.41 s  ClockTime = 4 s

Time = 67

DILUPBiCGStab:  Solving for omega, Initial residual = 7.4771e-06, Final residual = 9.53101e-11, No Iterations 5
ExecutionTime = 3.45 s  ClockTime = 4 s

Time = 68

DILUPBiCGStab:  Solving for omega, Initial residual = 7.34027e-06, Final residual = 9.01935e-11, No Iterations 5
ExecutionTime = 3.49 s  ClockTime = 4 s

Time = 69

DILUPBiCGStab:  Solving for omega, Initial residual = 7.20641e-06, Final residual = 8.52451e-11, No Iterations 5
ExecutionTime = 3.53 s  ClockTime = 4 s

Time = 70

DILUPBiCGStab:  Solving for omega, Initial residual = 7.07554e-06, Final residual = 8.11234e-11, No Iterations 5
ExecutionTime = 3.57 s  ClockTime = 4 s

Time = 71

DILUPBiCGStab:  Solving for omega, Initial residual = 6.94765e-06, Final residual = 7.81736e-11, No Iterations 5
ExecutionTime = 3.62 s  ClockTime = 4 s

Time = 72

DILUPBiCGStab:  Solving for omega, Initial residual = 6.8227e-06, Final residual = 7.60696e-11, No Iterations 5
ExecutionTime = 3.67 s  ClockTime = 4 s

Time = 73

DILUPBiCGStab:  Solving for omega, Initial residual = 6.70064e-06, Final residual = 7.41858e-11, No Iterations 5
ExecutionTime = 3.72 s  ClockTime = 4 s

Time = 74

DILUPBiCGStab:  Solving for omega, Initial residual = 6.5814e-06, Final residual = 7.21801e-11, No Iterations 5
ExecutionTime = 3.76 s  ClockTime = 4 s

Time = 75

DILUPBiCGStab:  Solving for omega, Initial residual = 6.46489e-06, Final residual = 7.02455e-11, No Iterations 5
ExecutionTime = 3.87 s  ClockTime = 4 s

Time = 76

DILUPBiCGStab:  Solving for omega, Initial residual = 6.35101e-06, Final residual = 6.83566e-11, No Iterations 5
ExecutionTime = 3.9 s  ClockTime = 4 s

Time = 77

DILUPBiCGStab:  Solving for omega, Initial residual = 6.23964e-06, Final residual = 6.6238e-11, No Iterations 5
ExecutionTime = 3.94 s  ClockTime = 4 s

Time = 78

DILUPBiCGStab:  Solving for omega, Initial residual = 6.13069e-06, Final residual = 6.3961e-11, No Iterations 5
ExecutionTime = 4 s  ClockTime = 4 s

Time = 79

DILUPBiCGStab:  Solving for omega, Initial residual = 6.02403e-06, Final residual = 6.15862e-11, No Iterations 5
ExecutionTime = 4.04 s  ClockTime = 5 s

Time = 80

DILUPBiCGStab:  Solving for omega, Initial residual = 5.91954e-06, Final residual = 5.92288e-11, No Iterations 5
ExecutionTime = 4.08 s  ClockTime = 5 s

Time = 81

DILUPBiCGStab:  Solving for omega, Initial residual = 5.81711e-06, Final residual = 5.69269e-11, No Iterations 5
ExecutionTime = 4.14 s  ClockTime = 5 s

Time = 82

DILUPBiCGStab:  Solving for omega, Initial residual = 5.71663e-06, Final residual = 5.47112e-11, No Iterations 5
ExecutionTime = 4.19 s  ClockTime = 5 s

Time = 83

DILUPBiCGStab:  Solving for omega, Initial residual = 5.61802e-06, Final residual = 5.25298e-11, No Iterations 5
ExecutionTime = 4.23 s  ClockTime = 5 s

Time = 84

DILUPBiCGStab:  Solving for omega, Initial residual = 5.52117e-06, Final residual = 5.04127e-11, No Iterations 5
ExecutionTime = 4.29 s  ClockTime = 5 s

Time = 85

DILUPBiCGStab:  Solving for omega, Initial residual = 5.42602e-06, Final residual = 4.83789e-11, No Iterations 5
ExecutionTime = 4.34 s  ClockTime = 5 s

Time = 86

DILUPBiCGStab:  Solving for omega, Initial residual = 5.3325e-06, Final residual = 4.6476e-11, No Iterations 5
ExecutionTime = 4.39 s  ClockTime = 5 s

Time = 87

DILUPBiCGStab:  Solving for omega, Initial residual = 5.24053e-06, Final residual = 4.47039e-11, No Iterations 5
ExecutionTime = 4.43 s  ClockTime = 5 s

Time = 88

DILUPBiCGStab:  Solving for omega, Initial residual = 5.15006e-06, Final residual = 4.3096e-11, No Iterations 5
ExecutionTime = 4.47 s  ClockTime = 5 s

Time = 89

DILUPBiCGStab:  Solving for omega, Initial residual = 5.06103e-06, Final residual = 4.1695e-11, No Iterations 5
ExecutionTime = 4.51 s  ClockTime = 5 s

Time = 90

DILUPBiCGStab:  Solving for omega, Initial residual = 4.97342e-06, Final residual = 4.04725e-11, No Iterations 5
ExecutionTime = 4.56 s  ClockTime = 5 s

Time = 91

DILUPBiCGStab:  Solving for omega, Initial residual = 4.88715e-06, Final residual = 3.94251e-11, No Iterations 5
ExecutionTime = 4.6 s  ClockTime = 5 s

Time = 92

DILUPBiCGStab:  Solving for omega, Initial residual = 4.8022e-06, Final residual = 3.85241e-11, No Iterations 5
ExecutionTime = 4.68 s  ClockTime = 5 s

Time = 93

DILUPBiCGStab:  Solving for omega, Initial residual = 4.71853e-06, Final residual = 3.77583e-11, No Iterations 5
ExecutionTime = 4.74 s  ClockTime = 5 s

Time = 94

DILUPBiCGStab:  Solving for omega, Initial residual = 4.63611e-06, Final residual = 3.70766e-11, No Iterations 5
ExecutionTime = 4.78 s  ClockTime = 5 s

Time = 95

DILUPBiCGStab:  Solving for omega, Initial residual = 4.55496e-06, Final residual = 3.64719e-11, No Iterations 5
ExecutionTime = 4.82 s  ClockTime = 5 s

Time = 96

DILUPBiCGStab:  Solving for omega, Initial residual = 4.47505e-06, Final residual = 3.59111e-11, No Iterations 5
ExecutionTime = 4.86 s  ClockTime = 5 s

Time = 97

DILUPBiCGStab:  Solving for omega, Initial residual = 4.39638e-06, Final residual = 3.53555e-11, No Iterations 5
ExecutionTime = 4.9 s  ClockTime = 5 s

Time = 98

DILUPBiCGStab:  Solving for omega, Initial residual = 4.31897e-06, Final residual = 3.47759e-11, No Iterations 5
ExecutionTime = 4.94 s  ClockTime = 6 s

Time = 99

DILUPBiCGStab:  Solving for omega, Initial residual = 4.24282e-06, Final residual = 3.41659e-11, No Iterations 5
ExecutionTime = 4.98 s  ClockTime = 6 s

Time = 100

DILUPBiCGStab:  Solving for omega, Initial residual = 4.16792e-06, Final residual = 3.34989e-11, No Iterations 5
ExecutionTime = 5.02 s  ClockTime = 6 s

Time = 101

DILUPBiCGStab:  Solving for omega, Initial residual = 4.09427e-06, Final residual = 3.27567e-11, No Iterations 5
ExecutionTime = 5.06 s  ClockTime = 6 s

Time = 102

DILUPBiCGStab:  Solving for omega, Initial residual = 4.0219e-06, Final residual = 3.19417e-11, No Iterations 5
ExecutionTime = 5.09 s  ClockTime = 6 s

Time = 103

DILUPBiCGStab:  Solving for omega, Initial residual = 3.95079e-06, Final residual = 3.10469e-11, No Iterations 5
ExecutionTime = 5.13 s  ClockTime = 6 s

Time = 104

DILUPBiCGStab:  Solving for omega, Initial residual = 3.88096e-06, Final residual = 3.00815e-11, No Iterations 5
ExecutionTime = 5.17 s  ClockTime = 6 s

Time = 105

DILUPBiCGStab:  Solving for omega, Initial residual = 3.81242e-06, Final residual = 9.83605e-11, No Iterations 5
ExecutionTime = 5.2 s  ClockTime = 6 s

Time = 106

DILUPBiCGStab:  Solving for omega, Initial residual = 3.74516e-06, Final residual = 9.65602e-11, No Iterations 5
ExecutionTime = 5.24 s  ClockTime = 6 s

Time = 107

DILUPBiCGStab:  Solving for omega, Initial residual = 3.67918e-06, Final residual = 9.41529e-11, No Iterations 5
ExecutionTime = 5.29 s  ClockTime = 6 s

Time = 108

DILUPBiCGStab:  Solving for omega, Initial residual = 3.6145e-06, Final residual = 9.16244e-11, No Iterations 5
ExecutionTime = 5.33 s  ClockTime = 6 s

Time = 109

DILUPBiCGStab:  Solving for omega, Initial residual = 3.55111e-06, Final residual = 8.90431e-11, No Iterations 5
ExecutionTime = 5.36 s  ClockTime = 6 s

Time = 110

DILUPBiCGStab:  Solving for omega, Initial residual = 3.489e-06, Final residual = 8.64509e-11, No Iterations 5
ExecutionTime = 5.39 s  ClockTime = 6 s

Time = 111

DILUPBiCGStab:  Solving for omega, Initial residual = 3.42817e-06, Final residual = 8.39606e-11, No Iterations 5
ExecutionTime = 5.42 s  ClockTime = 6 s

Time = 112

DILUPBiCGStab:  Solving for omega, Initial residual = 3.36859e-06, Final residual = 8.15869e-11, No Iterations 5
ExecutionTime = 5.46 s  ClockTime = 6 s

Time = 113

DILUPBiCGStab:  Solving for omega, Initial residual = 3.31027e-06, Final residual = 7.9303e-11, No Iterations 5
ExecutionTime = 5.51 s  ClockTime = 6 s

Time = 114

DILUPBiCGStab:  Solving for omega, Initial residual = 3.25316e-06, Final residual = 7.71435e-11, No Iterations 5
ExecutionTime = 5.54 s  ClockTime = 6 s

Time = 115

DILUPBiCGStab:  Solving for omega, Initial residual = 3.19727e-06, Final residual = 7.51226e-11, No Iterations 5
ExecutionTime = 5.58 s  ClockTime = 6 s

Time = 116

DILUPBiCGStab:  Solving for omega, Initial residual = 3.14256e-06, Final residual = 7.32221e-11, No Iterations 5
ExecutionTime = 5.61 s  ClockTime = 6 s

Time = 117

DILUPBiCGStab:  Solving for omega, Initial residual = 3.089e-06, Final residual = 7.1427e-11, No Iterations 5
ExecutionTime = 5.65 s  ClockTime = 6 s

Time = 118

DILUPBiCGStab:  Solving for omega, Initial residual = 3.03658e-06, Final residual = 6.97293e-11, No Iterations 5
ExecutionTime = 5.68 s  ClockTime = 7 s

Time = 119

DILUPBiCGStab:  Solving for omega, Initial residual = 2.98527e-06, Final residual = 6.8133e-11, No Iterations 5
ExecutionTime = 5.72 s  ClockTime = 7 s

Time = 120

DILUPBiCGStab:  Solving for omega, Initial residual = 2.93503e-06, Final residual = 6.66364e-11, No Iterations 5
ExecutionTime = 5.77 s  ClockTime = 7 s

Time = 121

DILUPBiCGStab:  Solving for omega, Initial residual = 2.88585e-06, Final residual = 6.5218e-11, No Iterations 5
ExecutionTime = 5.83 s  ClockTime = 7 s

Time = 122

DILUPBiCGStab:  Solving for omega, Initial residual = 2.83768e-06, Final residual = 6.38745e-11, No Iterations 5
ExecutionTime = 5.86 s  ClockTime = 7 s

Time = 123

DILUPBiCGStab:  Solving for omega, Initial residual = 2.79051e-06, Final residual = 6.25971e-11, No Iterations 5
ExecutionTime = 5.89 s  ClockTime = 7 s

Time = 124

DILUPBiCGStab:  Solving for omega, Initial residual = 2.74429e-06, Final residual = 6.13717e-11, No Iterations 5
ExecutionTime = 5.92 s  ClockTime = 7 s

Time = 125

DILUPBiCGStab:  Solving for omega, Initial residual = 2.69902e-06, Final residual = 6.01947e-11, No Iterations 5
ExecutionTime = 5.97 s  ClockTime = 7 s

Time = 126

DILUPBiCGStab:  Solving for omega, Initial residual = 2.65465e-06, Final residual = 5.90587e-11, No Iterations 5
ExecutionTime = 6.02 s  ClockTime = 7 s

Time = 127

DILUPBiCGStab:  Solving for omega, Initial residual = 2.61116e-06, Final residual = 5.79528e-11, No Iterations 5
ExecutionTime = 6.06 s  ClockTime = 7 s

Time = 128

DILUPBiCGStab:  Solving for omega, Initial residual = 2.56851e-06, Final residual = 5.68745e-11, No Iterations 5
ExecutionTime = 6.09 s  ClockTime = 7 s

Time = 129

DILUPBiCGStab:  Solving for omega, Initial residual = 2.5267e-06, Final residual = 5.58119e-11, No Iterations 5
ExecutionTime = 6.13 s  ClockTime = 7 s

Time = 130

DILUPBiCGStab:  Solving for omega, Initial residual = 2.48568e-06, Final residual = 5.47648e-11, No Iterations 5
ExecutionTime = 6.17 s  ClockTime = 7 s

Time = 131

DILUPBiCGStab:  Solving for omega, Initial residual = 2.44543e-06, Final residual = 5.37367e-11, No Iterations 5
ExecutionTime = 6.2 s  ClockTime = 7 s

Time = 132

DILUPBiCGStab:  Solving for omega, Initial residual = 2.40593e-06, Final residual = 5.27248e-11, No Iterations 5
ExecutionTime = 6.24 s  ClockTime = 7 s

Time = 133

DILUPBiCGStab:  Solving for omega, Initial residual = 2.36716e-06, Final residual = 5.17257e-11, No Iterations 5
ExecutionTime = 6.27 s  ClockTime = 7 s

Time = 134

DILUPBiCGStab:  Solving for omega, Initial residual = 2.32909e-06, Final residual = 5.07382e-11, No Iterations 5
ExecutionTime = 6.31 s  ClockTime = 7 s

Time = 135

DILUPBiCGStab:  Solving for omega, Initial residual = 2.29169e-06, Final residual = 4.97665e-11, No Iterations 5
ExecutionTime = 6.34 s  ClockTime = 7 s

Time = 136

DILUPBiCGStab:  Solving for omega, Initial residual = 2.25496e-06, Final residual = 4.88106e-11, No Iterations 5
ExecutionTime = 6.37 s  ClockTime = 7 s

Time = 137

DILUPBiCGStab:  Solving for omega, Initial residual = 2.21886e-06, Final residual = 4.78695e-11, No Iterations 5
ExecutionTime = 6.4 s  ClockTime = 7 s

Time = 138

DILUPBiCGStab:  Solving for omega, Initial residual = 2.18339e-06, Final residual = 4.69428e-11, No Iterations 5
ExecutionTime = 6.45 s  ClockTime = 7 s

Time = 139

DILUPBiCGStab:  Solving for omega, Initial residual = 2.14852e-06, Final residual = 4.60285e-11, No Iterations 5
ExecutionTime = 6.49 s  ClockTime = 8 s

Time = 140

DILUPBiCGStab:  Solving for omega, Initial residual = 2.11423e-06, Final residual = 4.51307e-11, No Iterations 5
ExecutionTime = 6.53 s  ClockTime = 8 s

Time = 141

DILUPBiCGStab:  Solving for omega, Initial residual = 2.08051e-06, Final residual = 4.42521e-11, No Iterations 5
ExecutionTime = 6.57 s  ClockTime = 8 s

Time = 142

DILUPBiCGStab:  Solving for omega, Initial residual = 2.04734e-06, Final residual = 4.33897e-11, No Iterations 5
ExecutionTime = 6.62 s  ClockTime = 8 s

Time = 143

DILUPBiCGStab:  Solving for omega, Initial residual = 2.0147e-06, Final residual = 4.2545e-11, No Iterations 5
ExecutionTime = 6.65 s  ClockTime = 8 s

Time = 144

DILUPBiCGStab:  Solving for omega, Initial residual = 1.98259e-06, Final residual = 4.17214e-11, No Iterations 5
ExecutionTime = 6.69 s  ClockTime = 8 s

Time = 145

DILUPBiCGStab:  Solving for omega, Initial residual = 1.95098e-06, Final residual = 4.09232e-11, No Iterations 5
ExecutionTime = 6.72 s  ClockTime = 8 s

Time = 146

DILUPBiCGStab:  Solving for omega, Initial residual = 1.91987e-06, Final residual = 4.01519e-11, No Iterations 5
ExecutionTime = 6.76 s  ClockTime = 8 s

Time = 147

DILUPBiCGStab:  Solving for omega, Initial residual = 1.88923e-06, Final residual = 3.94049e-11, No Iterations 5
ExecutionTime = 6.8 s  ClockTime = 8 s

Time = 148

DILUPBiCGStab:  Solving for omega, Initial residual = 1.85906e-06, Final residual = 3.86824e-11, No Iterations 5
ExecutionTime = 6.82 s  ClockTime = 8 s

Time = 149

DILUPBiCGStab:  Solving for omega, Initial residual = 1.82935e-06, Final residual = 3.79834e-11, No Iterations 5
ExecutionTime = 6.86 s  ClockTime = 8 s

Time = 150

DILUPBiCGStab:  Solving for omega, Initial residual = 1.80008e-06, Final residual = 3.73063e-11, No Iterations 5
ExecutionTime = 6.89 s  ClockTime = 8 s

Time = 151

DILUPBiCGStab:  Solving for omega, Initial residual = 1.77124e-06, Final residual = 3.66502e-11, No Iterations 5
ExecutionTime = 6.93 s  ClockTime = 8 s

Time = 152

DILUPBiCGStab:  Solving for omega, Initial residual = 1.74283e-06, Final residual = 3.60146e-11, No Iterations 5
ExecutionTime = 6.96 s  ClockTime = 8 s

Time = 153

DILUPBiCGStab:  Solving for omega, Initial residual = 1.71483e-06, Final residual = 3.53997e-11, No Iterations 5
ExecutionTime = 6.99 s  ClockTime = 8 s

Time = 154

DILUPBiCGStab:  Solving for omega, Initial residual = 1.68724e-06, Final residual = 3.48044e-11, No Iterations 5
ExecutionTime = 7.03 s  ClockTime = 8 s

Time = 155

DILUPBiCGStab:  Solving for omega, Initial residual = 1.66004e-06, Final residual = 3.42285e-11, No Iterations 5
ExecutionTime = 7.06 s  ClockTime = 8 s

Time = 156

DILUPBiCGStab:  Solving for omega, Initial residual = 1.63323e-06, Final residual = 3.36697e-11, No Iterations 5
ExecutionTime = 7.1 s  ClockTime = 8 s

Time = 157

DILUPBiCGStab:  Solving for omega, Initial residual = 1.60681e-06, Final residual = 3.31279e-11, No Iterations 5
ExecutionTime = 7.14 s  ClockTime = 8 s

Time = 158

DILUPBiCGStab:  Solving for omega, Initial residual = 1.58075e-06, Final residual = 3.26024e-11, No Iterations 5
ExecutionTime = 7.17 s  ClockTime = 8 s

Time = 159

DILUPBiCGStab:  Solving for omega, Initial residual = 1.55507e-06, Final residual = 3.20924e-11, No Iterations 5
ExecutionTime = 7.2 s  ClockTime = 9 s

Time = 160

DILUPBiCGStab:  Solving for omega, Initial residual = 1.52974e-06, Final residual = 3.15966e-11, No Iterations 5
ExecutionTime = 7.26 s  ClockTime = 9 s

Time = 161

DILUPBiCGStab:  Solving for omega, Initial residual = 1.50477e-06, Final residual = 3.11142e-11, No Iterations 5
ExecutionTime = 7.29 s  ClockTime = 9 s

Time = 162

DILUPBiCGStab:  Solving for omega, Initial residual = 1.48014e-06, Final residual = 3.06445e-11, No Iterations 5
ExecutionTime = 7.32 s  ClockTime = 9 s

Time = 163

DILUPBiCGStab:  Solving for omega, Initial residual = 1.45586e-06, Final residual = 3.01865e-11, No Iterations 5
ExecutionTime = 7.36 s  ClockTime = 9 s

Time = 164

DILUPBiCGStab:  Solving for omega, Initial residual = 1.43192e-06, Final residual = 2.97389e-11, No Iterations 5
ExecutionTime = 7.39 s  ClockTime = 9 s

Time = 165

DILUPBiCGStab:  Solving for omega, Initial residual = 1.4083e-06, Final residual = 2.9301e-11, No Iterations 5
ExecutionTime = 7.42 s  ClockTime = 9 s

Time = 166

DILUPBiCGStab:  Solving for omega, Initial residual = 1.38502e-06, Final residual = 2.88721e-11, No Iterations 5
ExecutionTime = 7.45 s  ClockTime = 9 s

Time = 167

DILUPBiCGStab:  Solving for omega, Initial residual = 1.36206e-06, Final residual = 2.84516e-11, No Iterations 5
ExecutionTime = 7.49 s  ClockTime = 9 s

Time = 168

DILUPBiCGStab:  Solving for omega, Initial residual = 1.33941e-06, Final residual = 2.80389e-11, No Iterations 5
ExecutionTime = 7.53 s  ClockTime = 9 s

Time = 169

DILUPBiCGStab:  Solving for omega, Initial residual = 1.31708e-06, Final residual = 2.76327e-11, No Iterations 5
ExecutionTime = 7.56 s  ClockTime = 9 s

Time = 170

DILUPBiCGStab:  Solving for omega, Initial residual = 1.29506e-06, Final residual = 2.72327e-11, No Iterations 5
ExecutionTime = 7.59 s  ClockTime = 9 s

Time = 171

DILUPBiCGStab:  Solving for omega, Initial residual = 1.27335e-06, Final residual = 2.68387e-11, No Iterations 5
ExecutionTime = 7.63 s  ClockTime = 9 s

Time = 172

DILUPBiCGStab:  Solving for omega, Initial residual = 1.25195e-06, Final residual = 2.64505e-11, No Iterations 5
ExecutionTime = 7.67 s  ClockTime = 9 s

Time = 173

DILUPBiCGStab:  Solving for omega, Initial residual = 1.23084e-06, Final residual = 2.60674e-11, No Iterations 5
ExecutionTime = 7.72 s  ClockTime = 9 s

Time = 174

DILUPBiCGStab:  Solving for omega, Initial residual = 1.21002e-06, Final residual = 9.97953e-11, No Iterations 4
ExecutionTime = 7.76 s  ClockTime = 9 s

Time = 175

DILUPBiCGStab:  Solving for omega, Initial residual = 1.18951e-06, Final residual = 9.95604e-11, No Iterations 4
ExecutionTime = 7.81 s  ClockTime = 9 s

Time = 176

DILUPBiCGStab:  Solving for omega, Initial residual = 1.16928e-06, Final residual = 9.8203e-11, No Iterations 4
ExecutionTime = 7.85 s  ClockTime = 9 s

Time = 177

DILUPBiCGStab:  Solving for omega, Initial residual = 1.14934e-06, Final residual = 9.67043e-11, No Iterations 4
ExecutionTime = 7.89 s  ClockTime = 9 s

Time = 178

DILUPBiCGStab:  Solving for omega, Initial residual = 1.12969e-06, Final residual = 9.51948e-11, No Iterations 4
ExecutionTime = 7.92 s  ClockTime = 9 s

Time = 179

DILUPBiCGStab:  Solving for omega, Initial residual = 1.11031e-06, Final residual = 9.36959e-11, No Iterations 4
ExecutionTime = 7.96 s  ClockTime = 10 s

Time = 180

DILUPBiCGStab:  Solving for omega, Initial residual = 1.09122e-06, Final residual = 9.22114e-11, No Iterations 4
ExecutionTime = 8.01 s  ClockTime = 10 s

Time = 181

DILUPBiCGStab:  Solving for omega, Initial residual = 1.07239e-06, Final residual = 9.07428e-11, No Iterations 4
ExecutionTime = 8.04 s  ClockTime = 10 s

Time = 182

DILUPBiCGStab:  Solving for omega, Initial residual = 1.05384e-06, Final residual = 8.929e-11, No Iterations 4
ExecutionTime = 8.07 s  ClockTime = 10 s

Time = 183

DILUPBiCGStab:  Solving for omega, Initial residual = 1.03556e-06, Final residual = 8.78528e-11, No Iterations 4
ExecutionTime = 8.1 s  ClockTime = 10 s

Time = 184

DILUPBiCGStab:  Solving for omega, Initial residual = 1.01754e-06, Final residual = 8.64319e-11, No Iterations 4
ExecutionTime = 8.13 s  ClockTime = 10 s

Time = 185

DILUPBiCGStab:  Solving for omega, Initial residual = 9.99792e-07, Final residual = 8.50268e-11, No Iterations 4
ExecutionTime = 8.17 s  ClockTime = 10 s

Time = 186

DILUPBiCGStab:  Solving for omega, Initial residual = 9.82301e-07, Final residual = 8.36378e-11, No Iterations 4
ExecutionTime = 8.2 s  ClockTime = 10 s

Time = 187

DILUPBiCGStab:  Solving for omega, Initial residual = 9.65069e-07, Final residual = 8.22648e-11, No Iterations 4
ExecutionTime = 8.25 s  ClockTime = 10 s

Time = 188

DILUPBiCGStab:  Solving for omega, Initial residual = 9.48092e-07, Final residual = 8.09079e-11, No Iterations 4
ExecutionTime = 8.29 s  ClockTime = 10 s

Time = 189

DILUPBiCGStab:  Solving for omega, Initial residual = 9.31369e-07, Final residual = 7.9567e-11, No Iterations 4
ExecutionTime = 8.34 s  ClockTime = 10 s

Time = 190

DILUPBiCGStab:  Solving for omega, Initial residual = 9.14896e-07, Final residual = 7.82419e-11, No Iterations 4
ExecutionTime = 8.38 s  ClockTime = 10 s

Time = 191

DILUPBiCGStab:  Solving for omega, Initial residual = 8.98671e-07, Final residual = 7.69329e-11, No Iterations 4
ExecutionTime = 8.42 s  ClockTime = 10 s

Time = 192

DILUPBiCGStab:  Solving for omega, Initial residual = 8.82691e-07, Final residual = 7.5642e-11, No Iterations 4
ExecutionTime = 8.45 s  ClockTime = 10 s

Time = 193

DILUPBiCGStab:  Solving for omega, Initial residual = 8.66954e-07, Final residual = 7.43714e-11, No Iterations 4
ExecutionTime = 8.49 s  ClockTime = 10 s

Time = 194

DILUPBiCGStab:  Solving for omega, Initial residual = 8.51457e-07, Final residual = 7.31211e-11, No Iterations 4
ExecutionTime = 8.53 s  ClockTime = 10 s

Time = 195

DILUPBiCGStab:  Solving for omega, Initial residual = 8.36197e-07, Final residual = 7.18901e-11, No Iterations 4
ExecutionTime = 8.58 s  ClockTime = 10 s

Time = 196

DILUPBiCGStab:  Solving for omega, Initial residual = 8.21173e-07, Final residual = 7.06765e-11, No Iterations 4
ExecutionTime = 8.62 s  ClockTime = 10 s

Time = 197

DILUPBiCGStab:  Solving for omega, Initial residual = 8.06381e-07, Final residual = 6.94799e-11, No Iterations 4
ExecutionTime = 8.67 s  ClockTime = 10 s

Time = 198

DILUPBiCGStab:  Solving for omega, Initial residual = 7.91819e-07, Final residual = 6.82998e-11, No Iterations 4
ExecutionTime = 8.71 s  ClockTime = 10 s

Time = 199

DILUPBiCGStab:  Solving for omega, Initial residual = 7.77485e-07, Final residual = 6.7136e-11, No Iterations 4
ExecutionTime = 8.75 s  ClockTime = 10 s

Time = 200

DILUPBiCGStab:  Solving for omega, Initial residual = 7.63375e-07, Final residual = 6.59876e-11, No Iterations 4
ExecutionTime = 8.79 s  ClockTime = 10 s

Time = 201

DILUPBiCGStab:  Solving for omega, Initial residual = 7.49488e-07, Final residual = 6.48551e-11, No Iterations 4
ExecutionTime = 8.84 s  ClockTime = 11 s

Time = 202

DILUPBiCGStab:  Solving for omega, Initial residual = 7.35821e-07, Final residual = 6.37385e-11, No Iterations 4
ExecutionTime = 8.89 s  ClockTime = 11 s

Time = 203

DILUPBiCGStab:  Solving for omega, Initial residual = 7.22371e-07, Final residual = 6.26368e-11, No Iterations 4
ExecutionTime = 8.93 s  ClockTime = 11 s

Time = 204

DILUPBiCGStab:  Solving for omega, Initial residual = 7.09136e-07, Final residual = 6.15499e-11, No Iterations 4
ExecutionTime = 8.97 s  ClockTime = 11 s

Time = 205

DILUPBiCGStab:  Solving for omega, Initial residual = 6.96113e-07, Final residual = 6.04787e-11, No Iterations 4
ExecutionTime = 9.01 s  ClockTime = 11 s

Time = 206

DILUPBiCGStab:  Solving for omega, Initial residual = 6.833e-07, Final residual = 5.9422e-11, No Iterations 4
ExecutionTime = 9.05 s  ClockTime = 11 s

Time = 207

DILUPBiCGStab:  Solving for omega, Initial residual = 6.70694e-07, Final residual = 5.838e-11, No Iterations 4
ExecutionTime = 9.09 s  ClockTime = 11 s

Time = 208

DILUPBiCGStab:  Solving for omega, Initial residual = 6.58293e-07, Final residual = 5.73524e-11, No Iterations 4
ExecutionTime = 9.14 s  ClockTime = 11 s

Time = 209

DILUPBiCGStab:  Solving for omega, Initial residual = 6.46094e-07, Final residual = 5.63397e-11, No Iterations 4
ExecutionTime = 9.19 s  ClockTime = 11 s

Time = 210

DILUPBiCGStab:  Solving for omega, Initial residual = 6.34095e-07, Final residual = 9.95e-11, No Iterations 4
ExecutionTime = 9.23 s  ClockTime = 11 s

Time = 211

DILUPBiCGStab:  Solving for omega, Initial residual = 6.22294e-07, Final residual = 8.90876e-11, No Iterations 4
ExecutionTime = 9.29 s  ClockTime = 11 s

Time = 212

DILUPBiCGStab:  Solving for omega, Initial residual = 6.10688e-07, Final residual = 8.66438e-11, No Iterations 4
ExecutionTime = 9.33 s  ClockTime = 11 s

Time = 213

DILUPBiCGStab:  Solving for omega, Initial residual = 5.99274e-07, Final residual = 8.49987e-11, No Iterations 4
ExecutionTime = 9.37 s  ClockTime = 11 s

Time = 214

DILUPBiCGStab:  Solving for omega, Initial residual = 5.88049e-07, Final residual = 8.34718e-11, No Iterations 4
ExecutionTime = 9.41 s  ClockTime = 11 s

Time = 215

DILUPBiCGStab:  Solving for omega, Initial residual = 5.77013e-07, Final residual = 8.19824e-11, No Iterations 4
ExecutionTime = 9.44 s  ClockTime = 11 s

Time = 216

DILUPBiCGStab:  Solving for omega, Initial residual = 5.66161e-07, Final residual = 8.05187e-11, No Iterations 4
ExecutionTime = 9.48 s  ClockTime = 11 s

Time = 217

DILUPBiCGStab:  Solving for omega, Initial residual = 5.55492e-07, Final residual = 7.90781e-11, No Iterations 4
ExecutionTime = 9.51 s  ClockTime = 11 s

Time = 218

DILUPBiCGStab:  Solving for omega, Initial residual = 5.45003e-07, Final residual = 7.76592e-11, No Iterations 4
ExecutionTime = 9.55 s  ClockTime = 11 s

Time = 219

DILUPBiCGStab:  Solving for omega, Initial residual = 5.34692e-07, Final residual = 7.6262e-11, No Iterations 4
ExecutionTime = 9.58 s  ClockTime = 11 s

Time = 220

DILUPBiCGStab:  Solving for omega, Initial residual = 5.24557e-07, Final residual = 7.48859e-11, No Iterations 4
ExecutionTime = 9.62 s  ClockTime = 11 s

Time = 221

DILUPBiCGStab:  Solving for omega, Initial residual = 5.14594e-07, Final residual = 7.35302e-11, No Iterations 4
ExecutionTime = 9.66 s  ClockTime = 11 s

Time = 222

DILUPBiCGStab:  Solving for omega, Initial residual = 5.04803e-07, Final residual = 7.21956e-11, No Iterations 4
ExecutionTime = 9.7 s  ClockTime = 11 s

Time = 223

DILUPBiCGStab:  Solving for omega, Initial residual = 4.9518e-07, Final residual = 7.0881e-11, No Iterations 4
ExecutionTime = 9.74 s  ClockTime = 11 s

Time = 224

DILUPBiCGStab:  Solving for omega, Initial residual = 4.85723e-07, Final residual = 6.95865e-11, No Iterations 4
ExecutionTime = 9.78 s  ClockTime = 12 s

Time = 225

DILUPBiCGStab:  Solving for omega, Initial residual = 4.7643e-07, Final residual = 6.8312e-11, No Iterations 4
ExecutionTime = 9.84 s  ClockTime = 12 s

Time = 226

DILUPBiCGStab:  Solving for omega, Initial residual = 4.67298e-07, Final residual = 6.7057e-11, No Iterations 4
ExecutionTime = 9.89 s  ClockTime = 12 s

Time = 227

DILUPBiCGStab:  Solving for omega, Initial residual = 4.58326e-07, Final residual = 6.58219e-11, No Iterations 4
ExecutionTime = 9.95 s  ClockTime = 12 s

Time = 228

DILUPBiCGStab:  Solving for omega, Initial residual = 4.4951e-07, Final residual = 6.4606e-11, No Iterations 4
ExecutionTime = 9.99 s  ClockTime = 12 s

Time = 229

DILUPBiCGStab:  Solving for omega, Initial residual = 4.4085e-07, Final residual = 6.3409e-11, No Iterations 4
ExecutionTime = 10.04 s  ClockTime = 12 s

Time = 230

DILUPBiCGStab:  Solving for omega, Initial residual = 4.32342e-07, Final residual = 6.2231e-11, No Iterations 4
ExecutionTime = 10.08 s  ClockTime = 12 s

Time = 231

DILUPBiCGStab:  Solving for omega, Initial residual = 4.23984e-07, Final residual = 6.10719e-11, No Iterations 4
ExecutionTime = 10.12 s  ClockTime = 12 s

Time = 232

DILUPBiCGStab:  Solving for omega, Initial residual = 4.15774e-07, Final residual = 5.99311e-11, No Iterations 4
ExecutionTime = 10.15 s  ClockTime = 12 s

Time = 233

DILUPBiCGStab:  Solving for omega, Initial residual = 4.07711e-07, Final residual = 5.88087e-11, No Iterations 4
ExecutionTime = 10.19 s  ClockTime = 12 s

Time = 234

DILUPBiCGStab:  Solving for omega, Initial residual = 3.99791e-07, Final residual = 5.77046e-11, No Iterations 4
ExecutionTime = 10.23 s  ClockTime = 12 s

Time = 235

DILUPBiCGStab:  Solving for omega, Initial residual = 3.92013e-07, Final residual = 5.66185e-11, No Iterations 4
ExecutionTime = 10.28 s  ClockTime = 12 s

Time = 236

DILUPBiCGStab:  Solving for omega, Initial residual = 3.84375e-07, Final residual = 5.55501e-11, No Iterations 4
ExecutionTime = 10.33 s  ClockTime = 12 s

Time = 237

DILUPBiCGStab:  Solving for omega, Initial residual = 3.76874e-07, Final residual = 5.44993e-11, No Iterations 4
ExecutionTime = 10.37 s  ClockTime = 12 s

Time = 238

DILUPBiCGStab:  Solving for omega, Initial residual = 3.69508e-07, Final residual = 5.34657e-11, No Iterations 4
ExecutionTime = 10.42 s  ClockTime = 12 s

Time = 239

DILUPBiCGStab:  Solving for omega, Initial residual = 3.62275e-07, Final residual = 5.24495e-11, No Iterations 4
ExecutionTime = 10.47 s  ClockTime = 12 s

Time = 240

DILUPBiCGStab:  Solving for omega, Initial residual = 3.55174e-07, Final residual = 5.14504e-11, No Iterations 4
ExecutionTime = 10.52 s  ClockTime = 12 s

Time = 241

DILUPBiCGStab:  Solving for omega, Initial residual = 3.48202e-07, Final residual = 5.04682e-11, No Iterations 4
ExecutionTime = 10.57 s  ClockTime = 12 s

Time = 242

DILUPBiCGStab:  Solving for omega, Initial residual = 3.41358e-07, Final residual = 4.95028e-11, No Iterations 4
ExecutionTime = 10.6 s  ClockTime = 12 s

Time = 243

DILUPBiCGStab:  Solving for omega, Initial residual = 3.34638e-07, Final residual = 4.85539e-11, No Iterations 4
ExecutionTime = 10.64 s  ClockTime = 12 s

Time = 244

DILUPBiCGStab:  Solving for omega, Initial residual = 3.28042e-07, Final residual = 4.76212e-11, No Iterations 4
ExecutionTime = 10.68 s  ClockTime = 12 s

Time = 245

DILUPBiCGStab:  Solving for omega, Initial residual = 3.21567e-07, Final residual = 4.67043e-11, No Iterations 4
ExecutionTime = 10.73 s  ClockTime = 12 s

Time = 246

DILUPBiCGStab:  Solving for omega, Initial residual = 3.15212e-07, Final residual = 4.58034e-11, No Iterations 4
ExecutionTime = 10.77 s  ClockTime = 13 s

Time = 247

DILUPBiCGStab:  Solving for omega, Initial residual = 3.08974e-07, Final residual = 4.4918e-11, No Iterations 4
ExecutionTime = 10.82 s  ClockTime = 13 s

Time = 248

DILUPBiCGStab:  Solving for omega, Initial residual = 3.02851e-07, Final residual = 4.40481e-11, No Iterations 4
ExecutionTime = 10.86 s  ClockTime = 13 s

Time = 249

DILUPBiCGStab:  Solving for omega, Initial residual = 2.96843e-07, Final residual = 4.31934e-11, No Iterations 4
ExecutionTime = 10.91 s  ClockTime = 13 s

Time = 250

DILUPBiCGStab:  Solving for omega, Initial residual = 2.90946e-07, Final residual = 4.23538e-11, No Iterations 4
ExecutionTime = 10.95 s  ClockTime = 13 s

Time = 251

DILUPBiCGStab:  Solving for omega, Initial residual = 2.85159e-07, Final residual = 4.1529e-11, No Iterations 4
ExecutionTime = 10.99 s  ClockTime = 13 s

Time = 252

DILUPBiCGStab:  Solving for omega, Initial residual = 2.79481e-07, Final residual = 4.07189e-11, No Iterations 4
ExecutionTime = 11.03 s  ClockTime = 13 s

Time = 253

DILUPBiCGStab:  Solving for omega, Initial residual = 2.73909e-07, Final residual = 3.99232e-11, No Iterations 4
ExecutionTime = 11.07 s  ClockTime = 13 s

Time = 254

DILUPBiCGStab:  Solving for omega, Initial residual = 2.68442e-07, Final residual = 3.91417e-11, No Iterations 4
ExecutionTime = 11.11 s  ClockTime = 13 s

Time = 255

DILUPBiCGStab:  Solving for omega, Initial residual = 2.63078e-07, Final residual = 3.83743e-11, No Iterations 4
ExecutionTime = 11.15 s  ClockTime = 13 s

Time = 256

DILUPBiCGStab:  Solving for omega, Initial residual = 2.57816e-07, Final residual = 3.76207e-11, No Iterations 4
ExecutionTime = 11.2 s  ClockTime = 13 s

Time = 257

DILUPBiCGStab:  Solving for omega, Initial residual = 2.52652e-07, Final residual = 3.68807e-11, No Iterations 4
ExecutionTime = 11.24 s  ClockTime = 13 s

Time = 258

DILUPBiCGStab:  Solving for omega, Initial residual = 2.47587e-07, Final residual = 3.61542e-11, No Iterations 4
ExecutionTime = 11.28 s  ClockTime = 13 s

Time = 259

DILUPBiCGStab:  Solving for omega, Initial residual = 2.42618e-07, Final residual = 3.54408e-11, No Iterations 4
ExecutionTime = 11.32 s  ClockTime = 13 s

Time = 260

DILUPBiCGStab:  Solving for omega, Initial residual = 2.37744e-07, Final residual = 3.47404e-11, No Iterations 4
ExecutionTime = 11.36 s  ClockTime = 13 s

Time = 261

DILUPBiCGStab:  Solving for omega, Initial residual = 2.32962e-07, Final residual = 3.40529e-11, No Iterations 4
ExecutionTime = 11.4 s  ClockTime = 13 s

Time = 262

DILUPBiCGStab:  Solving for omega, Initial residual = 2.28273e-07, Final residual = 3.33783e-11, No Iterations 4
ExecutionTime = 11.44 s  ClockTime = 13 s

Time = 263

DILUPBiCGStab:  Solving for omega, Initial residual = 2.23673e-07, Final residual = 3.27162e-11, No Iterations 4
ExecutionTime = 11.48 s  ClockTime = 13 s

Time = 264

DILUPBiCGStab:  Solving for omega, Initial residual = 2.19161e-07, Final residual = 3.2066e-11, No Iterations 4
ExecutionTime = 11.52 s  ClockTime = 13 s

Time = 265

DILUPBiCGStab:  Solving for omega, Initial residual = 2.14736e-07, Final residual = 3.14278e-11, No Iterations 4
ExecutionTime = 11.57 s  ClockTime = 13 s

Time = 266

DILUPBiCGStab:  Solving for omega, Initial residual = 2.10396e-07, Final residual = 3.0801e-11, No Iterations 4
ExecutionTime = 11.61 s  ClockTime = 13 s

Time = 267

DILUPBiCGStab:  Solving for omega, Initial residual = 2.0614e-07, Final residual = 9.84422e-11, No Iterations 3
ExecutionTime = 11.65 s  ClockTime = 13 s

Time = 268

DILUPBiCGStab:  Solving for omega, Initial residual = 2.0197e-07, Final residual = 9.94053e-11, No Iterations 3
ExecutionTime = 11.7 s  ClockTime = 13 s

Time = 269

DILUPBiCGStab:  Solving for omega, Initial residual = 1.97881e-07, Final residual = 9.79382e-11, No Iterations 3
ExecutionTime = 11.74 s  ClockTime = 14 s

Time = 270

DILUPBiCGStab:  Solving for omega, Initial residual = 1.93871e-07, Final residual = 9.6167e-11, No Iterations 3
ExecutionTime = 11.79 s  ClockTime = 14 s

Time = 271

DILUPBiCGStab:  Solving for omega, Initial residual = 1.89938e-07, Final residual = 9.43576e-11, No Iterations 3
ExecutionTime = 11.83 s  ClockTime = 14 s

Time = 272

DILUPBiCGStab:  Solving for omega, Initial residual = 1.86082e-07, Final residual = 9.25566e-11, No Iterations 3
ExecutionTime = 11.88 s  ClockTime = 14 s

Time = 273

DILUPBiCGStab:  Solving for omega, Initial residual = 1.82301e-07, Final residual = 9.07758e-11, No Iterations 3
ExecutionTime = 11.92 s  ClockTime = 14 s

Time = 274

DILUPBiCGStab:  Solving for omega, Initial residual = 1.78593e-07, Final residual = 8.90191e-11, No Iterations 3
ExecutionTime = 11.97 s  ClockTime = 14 s

Time = 275

DILUPBiCGStab:  Solving for omega, Initial residual = 1.74958e-07, Final residual = 8.72887e-11, No Iterations 3
ExecutionTime = 12.01 s  ClockTime = 14 s

Time = 276

DILUPBiCGStab:  Solving for omega, Initial residual = 1.71394e-07, Final residual = 8.5586e-11, No Iterations 3
ExecutionTime = 12.08 s  ClockTime = 14 s

Time = 277

DILUPBiCGStab:  Solving for omega, Initial residual = 1.679e-07, Final residual = 8.39112e-11, No Iterations 3
ExecutionTime = 12.12 s  ClockTime = 14 s

Time = 278

DILUPBiCGStab:  Solving for omega, Initial residual = 1.64474e-07, Final residual = 8.22646e-11, No Iterations 3
ExecutionTime = 12.17 s  ClockTime = 14 s

Time = 279

DILUPBiCGStab:  Solving for omega, Initial residual = 1.61116e-07, Final residual = 8.06464e-11, No Iterations 3
ExecutionTime = 12.22 s  ClockTime = 14 s

Time = 280

DILUPBiCGStab:  Solving for omega, Initial residual = 1.57823e-07, Final residual = 7.90571e-11, No Iterations 3
ExecutionTime = 12.26 s  ClockTime = 14 s

Time = 281

DILUPBiCGStab:  Solving for omega, Initial residual = 1.54596e-07, Final residual = 7.74955e-11, No Iterations 3
ExecutionTime = 12.3 s  ClockTime = 14 s

Time = 282

DILUPBiCGStab:  Solving for omega, Initial residual = 1.51433e-07, Final residual = 7.59615e-11, No Iterations 3
ExecutionTime = 12.35 s  ClockTime = 14 s

Time = 283

DILUPBiCGStab:  Solving for omega, Initial residual = 1.48331e-07, Final residual = 7.4455e-11, No Iterations 3
ExecutionTime = 12.39 s  ClockTime = 14 s

Time = 284

DILUPBiCGStab:  Solving for omega, Initial residual = 1.45292e-07, Final residual = 7.29757e-11, No Iterations 3
ExecutionTime = 12.43 s  ClockTime = 14 s

Time = 285

DILUPBiCGStab:  Solving for omega, Initial residual = 1.42312e-07, Final residual = 7.15232e-11, No Iterations 3
ExecutionTime = 12.47 s  ClockTime = 14 s

Time = 286

DILUPBiCGStab:  Solving for omega, Initial residual = 1.39392e-07, Final residual = 7.00973e-11, No Iterations 3
ExecutionTime = 12.51 s  ClockTime = 14 s

Time = 287

DILUPBiCGStab:  Solving for omega, Initial residual = 1.3653e-07, Final residual = 6.86976e-11, No Iterations 3
ExecutionTime = 12.56 s  ClockTime = 14 s

Time = 288

DILUPBiCGStab:  Solving for omega, Initial residual = 1.33725e-07, Final residual = 6.73241e-11, No Iterations 3
ExecutionTime = 12.6 s  ClockTime = 14 s

Time = 289

DILUPBiCGStab:  Solving for omega, Initial residual = 1.30976e-07, Final residual = 6.5976e-11, No Iterations 3
ExecutionTime = 12.64 s  ClockTime = 14 s

Time = 290

DILUPBiCGStab:  Solving for omega, Initial residual = 1.28281e-07, Final residual = 6.46533e-11, No Iterations 3
ExecutionTime = 12.69 s  ClockTime = 15 s

Time = 291

DILUPBiCGStab:  Solving for omega, Initial residual = 1.25641e-07, Final residual = 6.33553e-11, No Iterations 3
ExecutionTime = 12.74 s  ClockTime = 15 s

Time = 292

DILUPBiCGStab:  Solving for omega, Initial residual = 1.23053e-07, Final residual = 6.2082e-11, No Iterations 3
ExecutionTime = 12.79 s  ClockTime = 15 s

Time = 293

DILUPBiCGStab:  Solving for omega, Initial residual = 1.20517e-07, Final residual = 6.08323e-11, No Iterations 3
ExecutionTime = 12.84 s  ClockTime = 15 s

Time = 294

DILUPBiCGStab:  Solving for omega, Initial residual = 1.18032e-07, Final residual = 5.9606e-11, No Iterations 3
ExecutionTime = 12.88 s  ClockTime = 15 s

Time = 295

DILUPBiCGStab:  Solving for omega, Initial residual = 1.15597e-07, Final residual = 5.8403e-11, No Iterations 3
ExecutionTime = 12.92 s  ClockTime = 15 s

Time = 296

DILUPBiCGStab:  Solving for omega, Initial residual = 1.13211e-07, Final residual = 5.72229e-11, No Iterations 3
ExecutionTime = 12.96 s  ClockTime = 15 s

Time = 297

DILUPBiCGStab:  Solving for omega, Initial residual = 1.10873e-07, Final residual = 5.60652e-11, No Iterations 3
ExecutionTime = 13 s  ClockTime = 15 s

Time = 298

DILUPBiCGStab:  Solving for omega, Initial residual = 1.08582e-07, Final residual = 5.49297e-11, No Iterations 3
ExecutionTime = 13.04 s  ClockTime = 15 s

Time = 299

DILUPBiCGStab:  Solving for omega, Initial residual = 1.06338e-07, Final residual = 5.38159e-11, No Iterations 3
ExecutionTime = 13.08 s  ClockTime = 15 s

Time = 300

DILUPBiCGStab:  Solving for omega, Initial residual = 1.04138e-07, Final residual = 5.27236e-11, No Iterations 3
ExecutionTime = 13.11 s  ClockTime = 15 s

Time = 301

DILUPBiCGStab:  Solving for omega, Initial residual = 1.01983e-07, Final residual = 5.16524e-11, No Iterations 3
ExecutionTime = 13.16 s  ClockTime = 15 s

Time = 302

DILUPBiCGStab:  Solving for omega, Initial residual = 9.98719e-08, Final residual = 5.06019e-11, No Iterations 3
ExecutionTime = 13.19 s  ClockTime = 15 s

Time = 303

DILUPBiCGStab:  Solving for omega, Initial residual = 9.78033e-08, Final residual = 4.95718e-11, No Iterations 3
ExecutionTime = 13.23 s  ClockTime = 15 s

Time = 304

DILUPBiCGStab:  Solving for omega, Initial residual = 9.57766e-08, Final residual = 9.99153e-11, No Iterations 3
ExecutionTime = 13.27 s  ClockTime = 15 s

Time = 305

DILUPBiCGStab:  Solving for omega, Initial residual = 9.37919e-08, Final residual = 3.75871e-11, No Iterations 3
ExecutionTime = 13.3 s  ClockTime = 15 s

Time = 306

DILUPBiCGStab:  Solving for omega, Initial residual = 9.18461e-08, Final residual = 9.52776e-11, No Iterations 3
ExecutionTime = 13.34 s  ClockTime = 15 s

Time = 307

DILUPBiCGStab:  Solving for omega, Initial residual = 8.99411e-08, Final residual = 3.59687e-11, No Iterations 3
ExecutionTime = 13.38 s  ClockTime = 15 s

Time = 308

DILUPBiCGStab:  Solving for omega, Initial residual = 8.80736e-08, Final residual = 9.14121e-11, No Iterations 3
ExecutionTime = 13.42 s  ClockTime = 15 s

Time = 309

DILUPBiCGStab:  Solving for omega, Initial residual = 8.62453e-08, Final residual = 9.80307e-11, No Iterations 3
ExecutionTime = 13.46 s  ClockTime = 15 s

Time = 310

DILUPBiCGStab:  Solving for omega, Initial residual = 8.44536e-08, Final residual = 3.37331e-11, No Iterations 3
ExecutionTime = 13.49 s  ClockTime = 15 s

Time = 311

DILUPBiCGStab:  Solving for omega, Initial residual = 8.26978e-08, Final residual = 8.56693e-11, No Iterations 3
ExecutionTime = 13.53 s  ClockTime = 15 s

Time = 312

DILUPBiCGStab:  Solving for omega, Initial residual = 8.09791e-08, Final residual = 9.289e-11, No Iterations 3
ExecutionTime = 13.57 s  ClockTime = 15 s

Time = 313

DILUPBiCGStab:  Solving for omega, Initial residual = 7.9295e-08, Final residual = 9.49675e-11, No Iterations 3
ExecutionTime = 13.61 s  ClockTime = 15 s

Time = 314

DILUPBiCGStab:  Solving for omega, Initial residual = 7.7645e-08, Final residual = 9.44033e-11, No Iterations 3
ExecutionTime = 13.65 s  ClockTime = 16 s

Time = 315

DILUPBiCGStab:  Solving for omega, Initial residual = 7.60289e-08, Final residual = 8.98548e-11, No Iterations 3
ExecutionTime = 13.7 s  ClockTime = 16 s

Time = 316

DILUPBiCGStab:  Solving for omega, Initial residual = 7.44458e-08, Final residual = 9.12359e-11, No Iterations 3
ExecutionTime = 13.73 s  ClockTime = 16 s

Time = 317

DILUPBiCGStab:  Solving for omega, Initial residual = 7.28952e-08, Final residual = 8.42909e-11, No Iterations 3
ExecutionTime = 13.77 s  ClockTime = 16 s

Time = 318

DILUPBiCGStab:  Solving for omega, Initial residual = 7.13764e-08, Final residual = 8.78694e-11, No Iterations 3
ExecutionTime = 13.81 s  ClockTime = 16 s

Time = 319

DILUPBiCGStab:  Solving for omega, Initial residual = 6.98888e-08, Final residual = 7.61904e-11, No Iterations 3
ExecutionTime = 13.85 s  ClockTime = 16 s

Time = 320

DILUPBiCGStab:  Solving for omega, Initial residual = 6.84318e-08, Final residual = 8.13107e-11, No Iterations 3
ExecutionTime = 13.88 s  ClockTime = 16 s

Time = 321

DILUPBiCGStab:  Solving for omega, Initial residual = 6.70048e-08, Final residual = 6.44324e-11, No Iterations 3
ExecutionTime = 13.92 s  ClockTime = 16 s

Time = 322

DILUPBiCGStab:  Solving for omega, Initial residual = 6.56077e-08, Final residual = 7.00519e-11, No Iterations 3
ExecutionTime = 13.96 s  ClockTime = 16 s

Time = 323

DILUPBiCGStab:  Solving for omega, Initial residual = 6.42392e-08, Final residual = 5.66221e-11, No Iterations 3
ExecutionTime = 14 s  ClockTime = 16 s

Time = 324

DILUPBiCGStab:  Solving for omega, Initial residual = 6.2899e-08, Final residual = 6.25146e-11, No Iterations 3
ExecutionTime = 14.04 s  ClockTime = 16 s

Time = 325

DILUPBiCGStab:  Solving for omega, Initial residual = 6.15861e-08, Final residual = 5.47989e-11, No Iterations 3
ExecutionTime = 14.09 s  ClockTime = 16 s

Time = 326

DILUPBiCGStab:  Solving for omega, Initial residual = 6.03005e-08, Final residual = 5.81726e-11, No Iterations 3
ExecutionTime = 14.14 s  ClockTime = 16 s

Time = 327

DILUPBiCGStab:  Solving for omega, Initial residual = 5.90411e-08, Final residual = 5.31452e-11, No Iterations 3
ExecutionTime = 14.18 s  ClockTime = 16 s

Time = 328

DILUPBiCGStab:  Solving for omega, Initial residual = 5.78079e-08, Final residual = 5.4775e-11, No Iterations 3
ExecutionTime = 14.22 s  ClockTime = 16 s

Time = 329

DILUPBiCGStab:  Solving for omega, Initial residual = 5.65999e-08, Final residual = 5.15003e-11, No Iterations 3
ExecutionTime = 14.26 s  ClockTime = 16 s

Time = 330

DILUPBiCGStab:  Solving for omega, Initial residual = 5.54171e-08, Final residual = 5.20674e-11, No Iterations 3
ExecutionTime = 14.31 s  ClockTime = 16 s

Time = 331

DILUPBiCGStab:  Solving for omega, Initial residual = 5.42585e-08, Final residual = 4.97146e-11, No Iterations 3
ExecutionTime = 14.35 s  ClockTime = 16 s

Time = 332

DILUPBiCGStab:  Solving for omega, Initial residual = 5.3124e-08, Final residual = 4.96734e-11, No Iterations 3
ExecutionTime = 14.39 s  ClockTime = 16 s

Time = 333

DILUPBiCGStab:  Solving for omega, Initial residual = 5.20128e-08, Final residual = 4.78618e-11, No Iterations 3
ExecutionTime = 14.43 s  ClockTime = 16 s

Time = 334

DILUPBiCGStab:  Solving for omega, Initial residual = 5.09248e-08, Final residual = 4.7504e-11, No Iterations 3
ExecutionTime = 14.46 s  ClockTime = 16 s

Time = 335

DILUPBiCGStab:  Solving for omega, Initial residual = 4.98591e-08, Final residual = 9.82038e-11, No Iterations 2
ExecutionTime = 14.49 s  ClockTime = 16 s

Time = 336

DILUPBiCGStab:  Solving for omega, Initial residual = 4.88188e-08, Final residual = 5.23445e-11, No Iterations 3
ExecutionTime = 14.53 s  ClockTime = 16 s

Time = 337

DILUPBiCGStab:  Solving for omega, Initial residual = 4.77963e-08, Final residual = 9.53283e-11, No Iterations 2
ExecutionTime = 14.57 s  ClockTime = 17 s

Time = 338

DILUPBiCGStab:  Solving for omega, Initial residual = 4.67988e-08, Final residual = 5.06272e-11, No Iterations 3
ExecutionTime = 14.61 s  ClockTime = 17 s

Time = 339

DILUPBiCGStab:  Solving for omega, Initial residual = 4.58187e-08, Final residual = 9.15787e-11, No Iterations 2
ExecutionTime = 14.65 s  ClockTime = 17 s

Time = 340

DILUPBiCGStab:  Solving for omega, Initial residual = 4.4862e-08, Final residual = 4.86127e-11, No Iterations 3
ExecutionTime = 14.69 s  ClockTime = 17 s

Time = 341

DILUPBiCGStab:  Solving for omega, Initial residual = 4.3922e-08, Final residual = 8.80037e-11, No Iterations 2
ExecutionTime = 14.74 s  ClockTime = 17 s

Time = 342

DILUPBiCGStab:  Solving for omega, Initial residual = 4.30044e-08, Final residual = 4.6699e-11, No Iterations 3
ExecutionTime = 14.78 s  ClockTime = 17 s

Time = 343

DILUPBiCGStab:  Solving for omega, Initial residual = 4.2103e-08, Final residual = 8.45103e-11, No Iterations 2
ExecutionTime = 14.83 s  ClockTime = 17 s

Time = 344

DILUPBiCGStab:  Solving for omega, Initial residual = 4.1223e-08, Final residual = 4.48499e-11, No Iterations 3
ExecutionTime = 14.87 s  ClockTime = 17 s

Time = 345

DILUPBiCGStab:  Solving for omega, Initial residual = 4.03585e-08, Final residual = 8.11338e-11, No Iterations 2
ExecutionTime = 14.92 s  ClockTime = 17 s

Time = 346

DILUPBiCGStab:  Solving for omega, Initial residual = 3.95146e-08, Final residual = 4.3061e-11, No Iterations 3
ExecutionTime = 14.96 s  ClockTime = 17 s

Time = 347

DILUPBiCGStab:  Solving for omega, Initial residual = 3.86856e-08, Final residual = 7.7876e-11, No Iterations 2
ExecutionTime = 15 s  ClockTime = 17 s

Time = 348

DILUPBiCGStab:  Solving for omega, Initial residual = 3.78764e-08, Final residual = 4.13352e-11, No Iterations 3
ExecutionTime = 15.1 s  ClockTime = 17 s

Time = 349

DILUPBiCGStab:  Solving for omega, Initial residual = 3.70814e-08, Final residual = 7.47385e-11, No Iterations 2
ExecutionTime = 15.14 s  ClockTime = 17 s

Time = 350

DILUPBiCGStab:  Solving for omega, Initial residual = 3.63054e-08, Final residual = 3.96715e-11, No Iterations 3
ExecutionTime = 15.18 s  ClockTime = 17 s

Time = 351

DILUPBiCGStab:  Solving for omega, Initial residual = 3.55432e-08, Final residual = 7.17169e-11, No Iterations 2
ExecutionTime = 15.22 s  ClockTime = 17 s

Time = 352

DILUPBiCGStab:  Solving for omega, Initial residual = 3.47991e-08, Final residual = 9.86902e-11, No Iterations 2
ExecutionTime = 15.26 s  ClockTime = 17 s

Time = 353

DILUPBiCGStab:  Solving for omega, Initial residual = 3.40713e-08, Final residual = 9.54018e-11, No Iterations 2
ExecutionTime = 15.29 s  ClockTime = 17 s

Time = 354

DILUPBiCGStab:  Solving for omega, Initial residual = 3.33585e-08, Final residual = 9.39316e-11, No Iterations 2
ExecutionTime = 15.33 s  ClockTime = 17 s

Time = 355

DILUPBiCGStab:  Solving for omega, Initial residual = 3.26604e-08, Final residual = 9.21696e-11, No Iterations 2
ExecutionTime = 15.36 s  ClockTime = 17 s

Time = 356

DILUPBiCGStab:  Solving for omega, Initial residual = 3.19768e-08, Final residual = 9.04043e-11, No Iterations 2
ExecutionTime = 15.4 s  ClockTime = 17 s

Time = 357

DILUPBiCGStab:  Solving for omega, Initial residual = 3.13073e-08, Final residual = 8.86409e-11, No Iterations 2
ExecutionTime = 15.43 s  ClockTime = 17 s

Time = 358

DILUPBiCGStab:  Solving for omega, Initial residual = 3.06516e-08, Final residual = 8.68935e-11, No Iterations 2
ExecutionTime = 15.46 s  ClockTime = 18 s

Time = 359

DILUPBiCGStab:  Solving for omega, Initial residual = 3.00096e-08, Final residual = 8.51677e-11, No Iterations 2
ExecutionTime = 15.51 s  ClockTime = 18 s

Time = 360

DILUPBiCGStab:  Solving for omega, Initial residual = 2.93809e-08, Final residual = 8.34666e-11, No Iterations 2
ExecutionTime = 15.55 s  ClockTime = 18 s

Time = 361

DILUPBiCGStab:  Solving for omega, Initial residual = 2.87652e-08, Final residual = 8.17922e-11, No Iterations 2
ExecutionTime = 15.58 s  ClockTime = 18 s

Time = 362

DILUPBiCGStab:  Solving for omega, Initial residual = 2.81624e-08, Final residual = 8.01454e-11, No Iterations 2
ExecutionTime = 15.62 s  ClockTime = 18 s

Time = 363

DILUPBiCGStab:  Solving for omega, Initial residual = 2.7572e-08, Final residual = 7.85269e-11, No Iterations 2
ExecutionTime = 15.65 s  ClockTime = 18 s

Time = 364

DILUPBiCGStab:  Solving for omega, Initial residual = 2.69939e-08, Final residual = 7.69369e-11, No Iterations 2
ExecutionTime = 15.68 s  ClockTime = 18 s

Time = 365

DILUPBiCGStab:  Solving for omega, Initial residual = 2.64279e-08, Final residual = 7.53754e-11, No Iterations 2
ExecutionTime = 15.72 s  ClockTime = 18 s

Time = 366

DILUPBiCGStab:  Solving for omega, Initial residual = 2.58736e-08, Final residual = 7.38425e-11, No Iterations 2
ExecutionTime = 15.75 s  ClockTime = 18 s

Time = 367

DILUPBiCGStab:  Solving for omega, Initial residual = 2.53309e-08, Final residual = 7.2338e-11, No Iterations 2
ExecutionTime = 15.79 s  ClockTime = 18 s

Time = 368

DILUPBiCGStab:  Solving for omega, Initial residual = 2.47995e-08, Final residual = 7.08616e-11, No Iterations 2
ExecutionTime = 15.82 s  ClockTime = 18 s

Time = 369

DILUPBiCGStab:  Solving for omega, Initial residual = 2.42791e-08, Final residual = 6.94132e-11, No Iterations 2
ExecutionTime = 15.86 s  ClockTime = 18 s

Time = 370

DILUPBiCGStab:  Solving for omega, Initial residual = 2.37696e-08, Final residual = 6.79925e-11, No Iterations 2
ExecutionTime = 15.9 s  ClockTime = 18 s

Time = 371

DILUPBiCGStab:  Solving for omega, Initial residual = 2.32707e-08, Final residual = 6.65989e-11, No Iterations 2
ExecutionTime = 15.93 s  ClockTime = 18 s

Time = 372

DILUPBiCGStab:  Solving for omega, Initial residual = 2.27823e-08, Final residual = 6.52323e-11, No Iterations 2
ExecutionTime = 15.97 s  ClockTime = 18 s

Time = 373

DILUPBiCGStab:  Solving for omega, Initial residual = 2.2304e-08, Final residual = 6.38922e-11, No Iterations 2
ExecutionTime = 16 s  ClockTime = 18 s

Time = 374

DILUPBiCGStab:  Solving for omega, Initial residual = 2.18357e-08, Final residual = 6.25783e-11, No Iterations 2
ExecutionTime = 16.04 s  ClockTime = 18 s

Time = 375

DILUPBiCGStab:  Solving for omega, Initial residual = 2.13772e-08, Final residual = 6.12901e-11, No Iterations 2
ExecutionTime = 16.07 s  ClockTime = 18 s

Time = 376

DILUPBiCGStab:  Solving for omega, Initial residual = 2.09282e-08, Final residual = 6.00273e-11, No Iterations 2
ExecutionTime = 16.11 s  ClockTime = 18 s

Time = 377

DILUPBiCGStab:  Solving for omega, Initial residual = 2.04887e-08, Final residual = 5.87895e-11, No Iterations 2
ExecutionTime = 16.14 s  ClockTime = 18 s

Time = 378

DILUPBiCGStab:  Solving for omega, Initial residual = 2.00583e-08, Final residual = 5.75763e-11, No Iterations 2
ExecutionTime = 16.17 s  ClockTime = 18 s

Time = 379

DILUPBiCGStab:  Solving for omega, Initial residual = 1.9637e-08, Final residual = 5.63872e-11, No Iterations 2
ExecutionTime = 16.22 s  ClockTime = 18 s

Time = 380

DILUPBiCGStab:  Solving for omega, Initial residual = 1.92244e-08, Final residual = 5.52218e-11, No Iterations 2
ExecutionTime = 16.32 s  ClockTime = 18 s

Time = 381

DILUPBiCGStab:  Solving for omega, Initial residual = 1.88205e-08, Final residual = 5.40796e-11, No Iterations 2
ExecutionTime = 16.38 s  ClockTime = 19 s

Time = 382

DILUPBiCGStab:  Solving for omega, Initial residual = 1.8425e-08, Final residual = 5.29604e-11, No Iterations 2
ExecutionTime = 16.43 s  ClockTime = 19 s

Time = 383

DILUPBiCGStab:  Solving for omega, Initial residual = 1.80378e-08, Final residual = 5.18636e-11, No Iterations 2
ExecutionTime = 16.48 s  ClockTime = 19 s

Time = 384

DILUPBiCGStab:  Solving for omega, Initial residual = 1.76587e-08, Final residual = 5.07889e-11, No Iterations 2
ExecutionTime = 16.52 s  ClockTime = 19 s

Time = 385

DILUPBiCGStab:  Solving for omega, Initial residual = 1.72876e-08, Final residual = 4.9736e-11, No Iterations 2
ExecutionTime = 16.55 s  ClockTime = 19 s

Time = 386

DILUPBiCGStab:  Solving for omega, Initial residual = 1.69242e-08, Final residual = 4.87044e-11, No Iterations 2
ExecutionTime = 16.58 s  ClockTime = 19 s

Time = 387

DILUPBiCGStab:  Solving for omega, Initial residual = 1.65685e-08, Final residual = 4.76936e-11, No Iterations 2
ExecutionTime = 16.62 s  ClockTime = 19 s

Time = 388

DILUPBiCGStab:  Solving for omega, Initial residual = 1.62202e-08, Final residual = 4.67032e-11, No Iterations 2
ExecutionTime = 16.66 s  ClockTime = 19 s

Time = 389

DILUPBiCGStab:  Solving for omega, Initial residual = 1.58791e-08, Final residual = 4.57331e-11, No Iterations 2
ExecutionTime = 16.7 s  ClockTime = 19 s

Time = 390

DILUPBiCGStab:  Solving for omega, Initial residual = 1.55453e-08, Final residual = 9.92215e-11, No Iterations 2
ExecutionTime = 16.73 s  ClockTime = 19 s

Time = 391

DILUPBiCGStab:  Solving for omega, Initial residual = 1.52194e-08, Final residual = 9.20393e-11, No Iterations 2
ExecutionTime = 16.76 s  ClockTime = 19 s

Time = 392

DILUPBiCGStab:  Solving for omega, Initial residual = 1.49002e-08, Final residual = 9.30161e-11, No Iterations 2
ExecutionTime = 16.8 s  ClockTime = 19 s

Time = 393

DILUPBiCGStab:  Solving for omega, Initial residual = 1.45876e-08, Final residual = 8.86657e-11, No Iterations 2
ExecutionTime = 16.84 s  ClockTime = 19 s

Time = 394

DILUPBiCGStab:  Solving for omega, Initial residual = 1.42816e-08, Final residual = 8.8078e-11, No Iterations 2
ExecutionTime = 16.88 s  ClockTime = 19 s

Time = 395

DILUPBiCGStab:  Solving for omega, Initial residual = 1.39819e-08, Final residual = 8.52156e-11, No Iterations 2
ExecutionTime = 16.92 s  ClockTime = 19 s

Time = 396

DILUPBiCGStab:  Solving for omega, Initial residual = 1.36885e-08, Final residual = 8.3931e-11, No Iterations 2
ExecutionTime = 16.96 s  ClockTime = 19 s

Time = 397

DILUPBiCGStab:  Solving for omega, Initial residual = 1.34011e-08, Final residual = 8.18419e-11, No Iterations 2
ExecutionTime = 17.01 s  ClockTime = 19 s

Time = 398

DILUPBiCGStab:  Solving for omega, Initial residual = 1.31198e-08, Final residual = 8.02582e-11, No Iterations 2
ExecutionTime = 17.05 s  ClockTime = 19 s

Time = 399

DILUPBiCGStab:  Solving for omega, Initial residual = 1.28444e-08, Final residual = 7.85755e-11, No Iterations 2
ExecutionTime = 17.09 s  ClockTime = 19 s

Time = 400

DILUPBiCGStab:  Solving for omega, Initial residual = 1.25746e-08, Final residual = 7.69307e-11, No Iterations 2
ExecutionTime = 17.13 s  ClockTime = 19 s

Time = 401

DILUPBiCGStab:  Solving for omega, Initial residual = 1.23106e-08, Final residual = 7.54241e-11, No Iterations 2
ExecutionTime = 17.17 s  ClockTime = 19 s

Time = 402

DILUPBiCGStab:  Solving for omega, Initial residual = 1.2052e-08, Final residual = 7.38562e-11, No Iterations 2
ExecutionTime = 17.2 s  ClockTime = 19 s

Time = 403

DILUPBiCGStab:  Solving for omega, Initial residual = 1.17989e-08, Final residual = 7.23881e-11, No Iterations 2
ExecutionTime = 17.24 s  ClockTime = 19 s

Time = 404

DILUPBiCGStab:  Solving for omega, Initial residual = 1.1551e-08, Final residual = 7.08905e-11, No Iterations 2
ExecutionTime = 17.28 s  ClockTime = 20 s

Time = 405

DILUPBiCGStab:  Solving for omega, Initial residual = 1.13083e-08, Final residual = 6.94654e-11, No Iterations 2
ExecutionTime = 17.32 s  ClockTime = 20 s

Time = 406

DILUPBiCGStab:  Solving for omega, Initial residual = 1.10707e-08, Final residual = 6.80325e-11, No Iterations 2
ExecutionTime = 17.37 s  ClockTime = 20 s

Time = 407

DILUPBiCGStab:  Solving for omega, Initial residual = 1.08381e-08, Final residual = 6.66532e-11, No Iterations 2
ExecutionTime = 17.41 s  ClockTime = 20 s

Time = 408

DILUPBiCGStab:  Solving for omega, Initial residual = 1.06103e-08, Final residual = 6.52797e-11, No Iterations 2
ExecutionTime = 17.45 s  ClockTime = 20 s

Time = 409

DILUPBiCGStab:  Solving for omega, Initial residual = 1.03873e-08, Final residual = 6.39485e-11, No Iterations 2
ExecutionTime = 17.48 s  ClockTime = 20 s

Time = 410

DILUPBiCGStab:  Solving for omega, Initial residual = 1.0169e-08, Final residual = 6.26307e-11, No Iterations 2
ExecutionTime = 17.52 s  ClockTime = 20 s

Time = 411

DILUPBiCGStab:  Solving for omega, Initial residual = 9.95529e-09, Final residual = 6.1348e-11, No Iterations 2
ExecutionTime = 17.55 s  ClockTime = 20 s

Time = 412

DILUPBiCGStab:  Solving for omega, Initial residual = 9.74602e-09, Final residual = 6.0083e-11, No Iterations 2
ExecutionTime = 17.58 s  ClockTime = 20 s

Time = 413

DILUPBiCGStab:  Solving for omega, Initial residual = 9.54115e-09, Final residual = 5.88485e-11, No Iterations 2
ExecutionTime = 17.62 s  ClockTime = 20 s

Time = 414

DILUPBiCGStab:  Solving for omega, Initial residual = 9.34057e-09, Final residual = 5.7634e-11, No Iterations 2
ExecutionTime = 17.67 s  ClockTime = 20 s

Time = 415

DILUPBiCGStab:  Solving for omega, Initial residual = 9.14419e-09, Final residual = 5.64469e-11, No Iterations 2
ExecutionTime = 17.72 s  ClockTime = 20 s

Time = 416

DILUPBiCGStab:  Solving for omega, Initial residual = 8.95194e-09, Final residual = 5.52808e-11, No Iterations 2
ExecutionTime = 17.76 s  ClockTime = 20 s

Time = 417

DILUPBiCGStab:  Solving for omega, Initial residual = 8.76372e-09, Final residual = 5.414e-11, No Iterations 2
ExecutionTime = 17.81 s  ClockTime = 20 s

Time = 418

DILUPBiCGStab:  Solving for omega, Initial residual = 8.57944e-09, Final residual = 5.30203e-11, No Iterations 2
ExecutionTime = 17.84 s  ClockTime = 20 s

Time = 419

DILUPBiCGStab:  Solving for omega, Initial residual = 8.39904e-09, Final residual = 5.19243e-11, No Iterations 2
ExecutionTime = 17.88 s  ClockTime = 20 s

Time = 420

DILUPBiCGStab:  Solving for omega, Initial residual = 8.22241e-09, Final residual = 5.08493e-11, No Iterations 2
ExecutionTime = 17.91 s  ClockTime = 20 s

Time = 421

DILUPBiCGStab:  Solving for omega, Initial residual = 8.0495e-09, Final residual = 4.97967e-11, No Iterations 2
ExecutionTime = 17.95 s  ClockTime = 20 s

Time = 422

DILUPBiCGStab:  Solving for omega, Initial residual = 7.88022e-09, Final residual = 4.87647e-11, No Iterations 2
ExecutionTime = 17.99 s  ClockTime = 20 s

Time = 423

DILUPBiCGStab:  Solving for omega, Initial residual = 7.71449e-09, Final residual = 4.77539e-11, No Iterations 2
ExecutionTime = 18.02 s  ClockTime = 20 s

Time = 424

DILUPBiCGStab:  Solving for omega, Initial residual = 7.55224e-09, Final residual = 4.67633e-11, No Iterations 2
ExecutionTime = 18.06 s  ClockTime = 20 s

Time = 425

DILUPBiCGStab:  Solving for omega, Initial residual = 7.3934e-09, Final residual = 4.5793e-11, No Iterations 2
ExecutionTime = 18.1 s  ClockTime = 20 s

Time = 426

DILUPBiCGStab:  Solving for omega, Initial residual = 7.23789e-09, Final residual = 4.48422e-11, No Iterations 2
ExecutionTime = 18.14 s  ClockTime = 20 s

Time = 427

DILUPBiCGStab:  Solving for omega, Initial residual = 7.08565e-09, Final residual = 4.39108e-11, No Iterations 2
ExecutionTime = 18.17 s  ClockTime = 20 s

Time = 428

DILUPBiCGStab:  Solving for omega, Initial residual = 6.93661e-09, Final residual = 4.29984e-11, No Iterations 2
ExecutionTime = 18.21 s  ClockTime = 21 s

Time = 429

DILUPBiCGStab:  Solving for omega, Initial residual = 6.7907e-09, Final residual = 4.21045e-11, No Iterations 2
ExecutionTime = 18.25 s  ClockTime = 21 s

Time = 430

DILUPBiCGStab:  Solving for omega, Initial residual = 6.64786e-09, Final residual = 4.12289e-11, No Iterations 2
ExecutionTime = 18.3 s  ClockTime = 21 s

Time = 431

DILUPBiCGStab:  Solving for omega, Initial residual = 6.50802e-09, Final residual = 4.03713e-11, No Iterations 2
ExecutionTime = 18.33 s  ClockTime = 21 s

Time = 432

DILUPBiCGStab:  Solving for omega, Initial residual = 6.37111e-09, Final residual = 3.95311e-11, No Iterations 2
ExecutionTime = 18.37 s  ClockTime = 21 s

Time = 433

DILUPBiCGStab:  Solving for omega, Initial residual = 6.23709e-09, Final residual = 3.87082e-11, No Iterations 2
ExecutionTime = 18.4 s  ClockTime = 21 s

Time = 434

DILUPBiCGStab:  Solving for omega, Initial residual = 6.10588e-09, Final residual = 3.79021e-11, No Iterations 2
ExecutionTime = 18.44 s  ClockTime = 21 s

Time = 435

DILUPBiCGStab:  Solving for omega, Initial residual = 5.97743e-09, Final residual = 3.71126e-11, No Iterations 2
ExecutionTime = 18.48 s  ClockTime = 21 s

Time = 436

DILUPBiCGStab:  Solving for omega, Initial residual = 5.85168e-09, Final residual = 3.63393e-11, No Iterations 2
ExecutionTime = 18.52 s  ClockTime = 21 s

Time = 437

DILUPBiCGStab:  Solving for omega, Initial residual = 5.72857e-09, Final residual = 3.55819e-11, No Iterations 2
ExecutionTime = 18.56 s  ClockTime = 21 s

Time = 438

DILUPBiCGStab:  Solving for omega, Initial residual = 5.60805e-09, Final residual = 3.48401e-11, No Iterations 2
ExecutionTime = 18.6 s  ClockTime = 21 s

Time = 439

DILUPBiCGStab:  Solving for omega, Initial residual = 5.49007e-09, Final residual = 3.41135e-11, No Iterations 2
ExecutionTime = 18.63 s  ClockTime = 21 s

Time = 440

DILUPBiCGStab:  Solving for omega, Initial residual = 5.37456e-09, Final residual = 3.34019e-11, No Iterations 2
ExecutionTime = 18.68 s  ClockTime = 21 s

Time = 441

DILUPBiCGStab:  Solving for omega, Initial residual = 5.26149e-09, Final residual = 3.2705e-11, No Iterations 2
ExecutionTime = 18.71 s  ClockTime = 21 s

Time = 442

DILUPBiCGStab:  Solving for omega, Initial residual = 5.15079e-09, Final residual = 3.20225e-11, No Iterations 2
ExecutionTime = 18.74 s  ClockTime = 21 s

Time = 443

DILUPBiCGStab:  Solving for omega, Initial residual = 5.04242e-09, Final residual = 3.13541e-11, No Iterations 2
ExecutionTime = 18.78 s  ClockTime = 21 s

Time = 444

DILUPBiCGStab:  Solving for omega, Initial residual = 4.93633e-09, Final residual = 3.06996e-11, No Iterations 2
ExecutionTime = 18.81 s  ClockTime = 21 s

Time = 445

DILUPBiCGStab:  Solving for omega, Initial residual = 4.83247e-09, Final residual = 3.00586e-11, No Iterations 2
ExecutionTime = 18.85 s  ClockTime = 21 s

Time = 446

DILUPBiCGStab:  Solving for omega, Initial residual = 4.7308e-09, Final residual = 2.94308e-11, No Iterations 2
ExecutionTime = 18.88 s  ClockTime = 21 s

Time = 447

DILUPBiCGStab:  Solving for omega, Initial residual = 4.63126e-09, Final residual = 2.8816e-11, No Iterations 2
ExecutionTime = 18.92 s  ClockTime = 21 s

Time = 448

DILUPBiCGStab:  Solving for omega, Initial residual = 4.53382e-09, Final residual = 2.8214e-11, No Iterations 2
ExecutionTime = 18.96 s  ClockTime = 21 s

Time = 449

DILUPBiCGStab:  Solving for omega, Initial residual = 4.43843e-09, Final residual = 2.76244e-11, No Iterations 2
ExecutionTime = 18.99 s  ClockTime = 21 s

Time = 450

DILUPBiCGStab:  Solving for omega, Initial residual = 4.34504e-09, Final residual = 2.70471e-11, No Iterations 2
ExecutionTime = 19.05 s  ClockTime = 22 s

Time = 451

DILUPBiCGStab:  Solving for omega, Initial residual = 4.25362e-09, Final residual = 2.64817e-11, No Iterations 2
ExecutionTime = 19.08 s  ClockTime = 22 s

Time = 452

DILUPBiCGStab:  Solving for omega, Initial residual = 4.16412e-09, Final residual = 2.59281e-11, No Iterations 2
ExecutionTime = 19.12 s  ClockTime = 22 s

Time = 453

DILUPBiCGStab:  Solving for omega, Initial residual = 4.07651e-09, Final residual = 2.5386e-11, No Iterations 2
ExecutionTime = 19.15 s  ClockTime = 22 s

Time = 454

DILUPBiCGStab:  Solving for omega, Initial residual = 3.99073e-09, Final residual = 9.95358e-11, No Iterations 1
ExecutionTime = 19.18 s  ClockTime = 22 s

Time = 455

DILUPBiCGStab:  Solving for omega, Initial residual = 3.90882e-09, Final residual = 9.83956e-11, No Iterations 1
ExecutionTime = 19.21 s  ClockTime = 22 s

Time = 456

DILUPBiCGStab:  Solving for omega, Initial residual = 3.82861e-09, Final residual = 9.67785e-11, No Iterations 1
ExecutionTime = 19.24 s  ClockTime = 22 s

Time = 457

DILUPBiCGStab:  Solving for omega, Initial residual = 3.7501e-09, Final residual = 9.54915e-11, No Iterations 1
ExecutionTime = 19.27 s  ClockTime = 22 s

Time = 458

DILUPBiCGStab:  Solving for omega, Initial residual = 3.67322e-09, Final residual = 9.4279e-11, No Iterations 1
ExecutionTime = 19.3 s  ClockTime = 22 s

Time = 459

DILUPBiCGStab:  Solving for omega, Initial residual = 3.59794e-09, Final residual = 9.3028e-11, No Iterations 1
ExecutionTime = 19.33 s  ClockTime = 22 s

Time = 460

DILUPBiCGStab:  Solving for omega, Initial residual = 3.52421e-09, Final residual = 9.17036e-11, No Iterations 1
ExecutionTime = 19.37 s  ClockTime = 22 s

Time = 461

DILUPBiCGStab:  Solving for omega, Initial residual = 3.45199e-09, Final residual = 9.03116e-11, No Iterations 1
ExecutionTime = 19.4 s  ClockTime = 22 s

Time = 462

DILUPBiCGStab:  Solving for omega, Initial residual = 3.38125e-09, Final residual = 8.88696e-11, No Iterations 1
ExecutionTime = 19.42 s  ClockTime = 22 s

Time = 463

DILUPBiCGStab:  Solving for omega, Initial residual = 3.31195e-09, Final residual = 8.73943e-11, No Iterations 1
ExecutionTime = 19.46 s  ClockTime = 22 s

Time = 464

DILUPBiCGStab:  Solving for omega, Initial residual = 3.24407e-09, Final residual = 8.59005e-11, No Iterations 1
ExecutionTime = 19.5 s  ClockTime = 22 s

Time = 465

[...]

Time = 5885

DILUPBiCGStab:  Solving for omega, Initial residual = 9.79647e-11, Final residual = 9.79647e-11, No Iterations 0
ExecutionTime = 202.37 s  ClockTime = 241 s

Time = 5886

DILUPBiCGStab:  Solving for omega, Initial residual = 9.79647e-11, Final residual = 9.79647e-11, No Iterations 0
ExecutionTime = 202.41 s  ClockTime = 241 s

Time = 5887

DILUPBiCGStab:  Solving for omega, Initial residual = 9.79647e-11, Final residual = 9.79647e-11, No Iterations 0
ExecutionTime = 202.44 s  ClockTime = 241 s

Time = 5888

DILUPBiCGStab:  Solving for omega, Initial residual = 9.79647e-11, Final residual = 9.79647e-11, No Iterations 0
ExecutionTime = 202.48 s  ClockTime = 241 s

Time = 5889

DILUPBiCGStab:  Solving for omega, Initial residual = 9.79647e-11, Final residual = 9.79647e-11, No Iterations 0
ExecutionTime = 202.53 s  ClockTime = 241 s

Time = 5890

DILUPBiCGStab:  Solving for omega, Initial residual = 9.79647e-11, Final residual = 9.79647e-11, No Iterations 0
ExecutionTime = 202.57 s  ClockTime = 241 s

Time = 5891

DILUPBiCGStab:  Solving for omega, Initial residual = 9.79647e-11, Final residual = 9.79647e-11, No Iterations 0
ExecutionTime = 202.6 s  ClockTime = 242 s

Time = 5892

DILUPBiCGStab:  Solving for omega, Initial residual = 9.79647e-11, Final residual = 9.79647e-11, No Iterations 0
ExecutionTime = 202.64 s  ClockTime = 242 s

Time = 5893

DILUPBiCGStab:  Solving for omega, Initial residual = 9.79647e-11, Final residual = 9.79647e-11, No Iterations 0
ExecutionTime = 202.68 s  ClockTime = 242 s

Time = 5894

DILUPBiCGStab:  Solving for omega, Initial residual = 9.79647e-11, Final residual = 9.79647e-11, No Iterations 0
ExecutionTime = 202.71 s  ClockTime = 242 s

Time = 5895

DILUPBiCGStab:  Solving for omega, Initial residual = 9.79647e-11, Final residual = 9.79647e-11, No Iterations 0
ExecutionTime = 202.74 s  ClockTime = 242 s

Time = 5896

DILUPBiCGStab:  Solving for omega, Initial residual = 9.79647e-11, Final residual = 9.79647e-11, No Iterations 0
ExecutionTime = 202.77 s  ClockTime = 242 s

Time = 5897

DILUPBiCGStab:  Solving for omega, Initial residual = 9.79647e-11, Final residual = 9.79647e-11, No Iterations 0
ExecutionTime = 202.8 s  ClockTime = 242 s

Time = 5898

DILUPBiCGStab:  Solving for omega, Initial residual = 9.79647e-11, Final residual = 9.79647e-11, No Iterations 0
ExecutionTime = 202.83 s  ClockTime = 242 s

Time = 5899

DILUPBiCGStab:  Solving for omega, Initial residual = 9.79647e-11, Final residual = 9.79647e-11, No Iterations 0
ExecutionTime = 202.87 s  ClockTime = 242 s

Time = 5900

DILUPBiCGStab:  Solving for omega, Initial residual = 9.79647e-11, Final residual = 9.79647e-11, No Iterations 0
ExecutionTime = 202.9 s  ClockTime = 242 s

Time = 5901

DILUPBiCGStab:  Solving for omega, Initial residual = 9.79647e-11, Final residual = 9.79647e-11, No Iterations 0
ExecutionTime = 202.93 s  ClockTime = 242 s

Time = 5902

DILUPBiCGStab:  Solving for omega, Initial residual = 9.79647e-11, Final residual = 9.79647e-11, No Iterations 0
ExecutionTime = 202.95 s  ClockTime = 242 s

Time = 5903

DILUPBiCGStab:  Solving for omega, Initial residual = 9.79647e-11, Final residual = 9.79647e-11, No Iterations 0
ExecutionTime = 202.99 s  ClockTime = 242 s

Time = 5904

DILUPBiCGStab:  Solving for omega, Initial residual = 9.79647e-11, Final residual = 9.79647e-11, No Iterations 0
ExecutionTime = 203.02 s  ClockTime = 242 s

Time = 5905

DILUPBiCGStab:  Solving for omega, Initial residual = 9.79647e-11, Final residual = 9.79647e-11, No Iterations 0
ExecutionTime = 203.05 s  ClockTime = 242 s

Time = 5906

DILUPBiCGStab:  Solving for omega, Initial residual = 9.79647e-11, Final residual = 9.79647e-11, No Iterations 0
ExecutionTime = 203.08 s  ClockTime = 242 s

Time = 5907

DILUPBiCGStab:  Solving for omega, Initial residual = 9.79647e-11, Final residual = 9.79647e-11, No Iterations 0
ExecutionTime = 203.11 s  ClockTime = 242 s

Time = 5908

DILUPBiCGStab:  Solving for omega, Initial residual = 9.79647e-11, Final residual = 9.79647e-11, No Iterations 0
ExecutionTime = 203.14 s  ClockTime = 242 s

Time = 5909

DILUPBiCGStab:  Solving for omega, Initial residual = 9.79647e-11, Final residual = 9.79647e-11, No Iterations 0
ExecutionTime = 203.17 s  ClockTime = 242 s

Time = 5910

DILUPBiCGStab:  Solving for omega, Initial residual = 9.79647e-11, Final residual = 9.79647e-11, No Iterations 0
ExecutionTime = 203.2 s  ClockTime = 242 s

Time = 5911

DILUPBiCGStab:  Solving for omega, Initial residual = 9.79647e-11, Final residual = 9.79647e-11, No Iterations 0
ExecutionTime = 203.23 s  ClockTime = 242 s

Time = 5912

DILUPBiCGStab:  Solving for omega, Initial residual = 9.79647e-11, Final residual = 9.79647e-11, No Iterations 0
ExecutionTime = 203.26 s  ClockTime = 242 s

Time = 5913

DILUPBiCGStab:  Solving for omega, Initial residual = 9.79647e-11, Final residual = 9.79647e-11, No Iterations 0
ExecutionTime = 203.29 s  ClockTime = 242 s

Time = 5914

DILUPBiCGStab:  Solving for omega, Initial residual = 9.79647e-11, Final residual = 9.79647e-11, No Iterations 0
ExecutionTime = 203.32 s  ClockTime = 242 s

Time = 5915

DILUPBiCGStab:  Solving for omega, Initial residual = 9.79647e-11, Final residual = 9.79647e-11, No Iterations 0
ExecutionTime = 203.35 s  ClockTime = 242 s

Time = 5916

DILUPBiCGStab:  Solving for omega, Initial residual = 9.79647e-11, Final residual = 9.79647e-11, No Iterations 0
ExecutionTime = 203.38 s  ClockTime = 242 s

Time = 5917

DILUPBiCGStab:  Solving for omega, Initial residual = 9.79647e-11, Final residual = 9.79647e-11, No Iterations 0
ExecutionTime = 203.42 s  ClockTime = 242 s

Time = 5918

DILUPBiCGStab:  Solving for omega, Initial residual = 9.79647e-11, Final residual = 9.79647e-11, No Iterations 0
ExecutionTime = 203.45 s  ClockTime = 243 s

Time = 5919

DILUPBiCGStab:  Solving for omega, Initial residual = 9.79647e-11, Final residual = 9.79647e-11, No Iterations 0
ExecutionTime = 203.49 s  ClockTime = 243 s

Time = 5920

DILUPBiCGStab:  Solving for omega, Initial residual = 9.79647e-11, Final residual = 9.79647e-11, No Iterations 0
ExecutionTime = 203.53 s  ClockTime = 243 s

Time = 5921

DILUPBiCGStab:  Solving for omega, Initial residual = 9.79647e-11, Final residual = 9.79647e-11, No Iterations 0
ExecutionTime = 203.58 s  ClockTime = 243 s

Time = 5922

DILUPBiCGStab:  Solving for omega, Initial residual = 9.79647e-11, Final residual = 9.79647e-11, No Iterations 0
ExecutionTime = 203.62 s  ClockTime = 243 s

Time = 5923

DILUPBiCGStab:  Solving for omega, Initial residual = 9.79647e-11, Final residual = 9.79647e-11, No Iterations 0
ExecutionTime = 203.65 s  ClockTime = 243 s

Time = 5924

DILUPBiCGStab:  Solving for omega, Initial residual = 9.79647e-11, Final residual = 9.79647e-11, No Iterations 0
ExecutionTime = 203.69 s  ClockTime = 243 s

Time = 5925

DILUPBiCGStab:  Solving for omega, Initial residual = 9.79647e-11, Final residual = 9.79647e-11, No Iterations 0
ExecutionTime = 203.73 s  ClockTime = 243 s

Time = 5926

DILUPBiCGStab:  Solving for omega, Initial residual = 9.79647e-11, Final residual = 9.79647e-11, No Iterations 0
ExecutionTime = 203.76 s  ClockTime = 243 s

Time = 5927

DILUPBiCGStab:  Solving for omega, Initial residual = 9.79647e-11, Final residual = 9.79647e-11, No Iterations 0
ExecutionTime = 203.79 s  ClockTime = 243 s

Time = 5928

DILUPBiCGStab:  Solving for omega, Initial residual = 9.79647e-11, Final residual = 9.79647e-11, No Iterations 0
ExecutionTime = 203.82 s  ClockTime = 243 s

Time = 5929

DILUPBiCGStab:  Solving for omega, Initial residual = 9.79647e-11, Final residual = 9.79647e-11, No Iterations 0
ExecutionTime = 203.86 s  ClockTime = 243 s

Time = 5930

DILUPBiCGStab:  Solving for omega, Initial residual = 9.79647e-11, Final residual = 9.79647e-11, No Iterations 0
ExecutionTime = 203.89 s  ClockTime = 243 s

Time = 5931

DILUPBiCGStab:  Solving for omega, Initial residual = 9.79647e-11, Final residual = 9.79647e-11, No Iterations 0
ExecutionTime = 203.92 s  ClockTime = 243 s

Time = 5932

DILUPBiCGStab:  Solving for omega, Initial residual = 9.79647e-11, Final residual = 9.79647e-11, No Iterations 0
ExecutionTime = 203.95 s  ClockTime = 243 s

Time = 5933

DILUPBiCGStab:  Solving for omega, Initial residual = 9.79647e-11, Final residual = 9.79647e-11, No Iterations 0
ExecutionTime = 203.98 s  ClockTime = 243 s

Time = 5934

DILUPBiCGStab:  Solving for omega, Initial residual = 9.79647e-11, Final residual = 9.79647e-11, No Iterations 0
ExecutionTime = 204.02 s  ClockTime = 243 s

Time = 5935

DILUPBiCGStab:  Solving for omega, Initial residual = 9.79647e-11, Final residual = 9.79647e-11, No Iterations 0
ExecutionTime = 204.05 s  ClockTime = 243 s

Time = 5936

DILUPBiCGStab:  Solving for omega, Initial residual = 9.79647e-11, Final residual = 9.79647e-11, No Iterations 0
ExecutionTime = 204.09 s  ClockTime = 243 s

Time = 5937

DILUPBiCGStab:  Solving for omega, Initial residual = 9.79647e-11, Final residual = 9.79647e-11, No Iterations 0
ExecutionTime = 204.12 s  ClockTime = 243 s

Time = 5938

DILUPBiCGStab:  Solving for omega, Initial residual = 9.79647e-11, Final residual = 9.79647e-11, No Iterations 0
ExecutionTime = 204.15 s  ClockTime = 243 s

Time = 5939

DILUPBiCGStab:  Solving for omega, Initial residual = 9.79647e-11, Final residual = 9.79647e-11, No Iterations 0
ExecutionTime = 204.19 s  ClockTime = 243 s

Time = 5940

DILUPBiCGStab:  Solving for omega, Initial residual = 9.79647e-11, Final residual = 9.79647e-11, No Iterations 0
ExecutionTime = 204.22 s  ClockTime = 243 s

Time = 5941

DILUPBiCGStab:  Solving for omega, Initial residual = 9.79647e-11, Final residual = 9.79647e-11, No Iterations 0
ExecutionTime = 204.25 s  ClockTime = 243 s

Time = 5942

DILUPBiCGStab:  Solving for omega, Initial residual = 9.79647e-11, Final residual = 9.79647e-11, No Iterations 0
ExecutionTime = 204.28 s  ClockTime = 244 s

Time = 5943

DILUPBiCGStab:  Solving for omega, Initial residual = 9.79647e-11, Final residual = 9.79647e-11, No Iterations 0
ExecutionTime = 204.31 s  ClockTime = 244 s

Time = 5944

DILUPBiCGStab:  Solving for omega, Initial residual = 9.79647e-11, Final residual = 9.79647e-11, No Iterations 0
ExecutionTime = 204.35 s  ClockTime = 244 s

Time = 5945

DILUPBiCGStab:  Solving for omega, Initial residual = 9.79647e-11, Final residual = 9.79647e-11, No Iterations 0
ExecutionTime = 204.37 s  ClockTime = 244 s

Time = 5946

DILUPBiCGStab:  Solving for omega, Initial residual = 9.79647e-11, Final residual = 9.79647e-11, No Iterations 0
ExecutionTime = 204.4 s  ClockTime = 244 s

Time = 5947

DILUPBiCGStab:  Solving for omega, Initial residual = 9.79647e-11, Final residual = 9.79647e-11, No Iterations 0
ExecutionTime = 204.43 s  ClockTime = 244 s

Time = 5948

DILUPBiCGStab:  Solving for omega, Initial residual = 9.79647e-11, Final residual = 9.79647e-11, No Iterations 0
ExecutionTime = 204.46 s  ClockTime = 244 s

Time = 5949

DILUPBiCGStab:  Solving for omega, Initial residual = 9.79647e-11, Final residual = 9.79647e-11, No Iterations 0
ExecutionTime = 204.5 s  ClockTime = 244 s

Time = 5950

DILUPBiCGStab:  Solving for omega, Initial residual = 9.79647e-11, Final residual = 9.79647e-11, No Iterations 0
ExecutionTime = 204.53 s  ClockTime = 244 s

Time = 5951

DILUPBiCGStab:  Solving for omega, Initial residual = 9.79647e-11, Final residual = 9.79647e-11, No Iterations 0
ExecutionTime = 204.56 s  ClockTime = 244 s

Time = 5952

DILUPBiCGStab:  Solving for omega, Initial residual = 9.79647e-11, Final residual = 9.79647e-11, No Iterations 0
ExecutionTime = 204.59 s  ClockTime = 244 s

Time = 5953

DILUPBiCGStab:  Solving for omega, Initial residual = 9.79647e-11, Final residual = 9.79647e-11, No Iterations 0
ExecutionTime = 204.62 s  ClockTime = 244 s

Time = 5954

DILUPBiCGStab:  Solving for omega, Initial residual = 9.79647e-11, Final residual = 9.79647e-11, No Iterations 0
ExecutionTime = 204.65 s  ClockTime = 244 s

Time = 5955

DILUPBiCGStab:  Solving for omega, Initial residual = 9.79647e-11, Final residual = 9.79647e-11, No Iterations 0
ExecutionTime = 204.68 s  ClockTime = 244 s

Time = 5956

DILUPBiCGStab:  Solving for omega, Initial residual = 9.79647e-11, Final residual = 9.79647e-11, No Iterations 0
ExecutionTime = 204.72 s  ClockTime = 244 s

Time = 5957

DILUPBiCGStab:  Solving for omega, Initial residual = 9.79647e-11, Final residual = 9.79647e-11, No Iterations 0
ExecutionTime = 204.75 s  ClockTime = 244 s

Time = 5958

DILUPBiCGStab:  Solving for omega, Initial residual = 9.79647e-11, Final residual = 9.79647e-11, No Iterations 0
ExecutionTime = 204.77 s  ClockTime = 244 s

Time = 5959

DILUPBiCGStab:  Solving for omega, Initial residual = 9.79647e-11, Final residual = 9.79647e-11, No Iterations 0
ExecutionTime = 204.81 s  ClockTime = 244 s

Time = 5960

DILUPBiCGStab:  Solving for omega, Initial residual = 9.79647e-11, Final residual = 9.79647e-11, No Iterations 0
ExecutionTime = 204.84 s  ClockTime = 244 s

Time = 5961

DILUPBiCGStab:  Solving for omega, Initial residual = 9.79647e-11, Final residual = 9.79647e-11, No Iterations 0
ExecutionTime = 204.87 s  ClockTime = 244 s

Time = 5962

DILUPBiCGStab:  Solving for omega, Initial residual = 9.79647e-11, Final residual = 9.79647e-11, No Iterations 0
ExecutionTime = 204.91 s  ClockTime = 244 s

Time = 5963

DILUPBiCGStab:  Solving for omega, Initial residual = 9.79647e-11, Final residual = 9.79647e-11, No Iterations 0
ExecutionTime = 204.94 s  ClockTime = 244 s

Time = 5964

DILUPBiCGStab:  Solving for omega, Initial residual = 9.79647e-11, Final residual = 9.79647e-11, No Iterations 0
ExecutionTime = 204.97 s  ClockTime = 244 s

Time = 5965

DILUPBiCGStab:  Solving for omega, Initial residual = 9.79647e-11, Final residual = 9.79647e-11, No Iterations 0
ExecutionTime = 205 s  ClockTime = 244 s

Time = 5966

DILUPBiCGStab:  Solving for omega, Initial residual = 9.79647e-11, Final residual = 9.79647e-11, No Iterations 0
ExecutionTime = 205.03 s  ClockTime = 244 s

Time = 5967

DILUPBiCGStab:  Solving for omega, Initial residual = 9.79647e-11, Final residual = 9.79647e-11, No Iterations 0
ExecutionTime = 205.07 s  ClockTime = 244 s

Time = 5968

DILUPBiCGStab:  Solving for omega, Initial residual = 9.79647e-11, Final residual = 9.79647e-11, No Iterations 0
ExecutionTime = 205.1 s  ClockTime = 244 s

Time = 5969

DILUPBiCGStab:  Solving for omega, Initial residual = 9.79647e-11, Final residual = 9.79647e-11, No Iterations 0
ExecutionTime = 205.13 s  ClockTime = 244 s

Time = 5970

DILUPBiCGStab:  Solving for omega, Initial residual = 9.79647e-11, Final residual = 9.79647e-11, No Iterations 0
ExecutionTime = 205.17 s  ClockTime = 245 s

Time = 5971

DILUPBiCGStab:  Solving for omega, Initial residual = 9.79647e-11, Final residual = 9.79647e-11, No Iterations 0
ExecutionTime = 205.2 s  ClockTime = 245 s

Time = 5972

DILUPBiCGStab:  Solving for omega, Initial residual = 9.79647e-11, Final residual = 9.79647e-11, No Iterations 0
ExecutionTime = 205.24 s  ClockTime = 245 s

Time = 5973

DILUPBiCGStab:  Solving for omega, Initial residual = 9.79647e-11, Final residual = 9.79647e-11, No Iterations 0
ExecutionTime = 205.27 s  ClockTime = 245 s

Time = 5974

DILUPBiCGStab:  Solving for omega, Initial residual = 9.79647e-11, Final residual = 9.79647e-11, No Iterations 0
ExecutionTime = 205.3 s  ClockTime = 245 s

Time = 5975

DILUPBiCGStab:  Solving for omega, Initial residual = 9.79647e-11, Final residual = 9.79647e-11, No Iterations 0
ExecutionTime = 205.34 s  ClockTime = 245 s

Time = 5976

DILUPBiCGStab:  Solving for omega, Initial residual = 9.79647e-11, Final residual = 9.79647e-11, No Iterations 0
ExecutionTime = 205.38 s  ClockTime = 245 s

Time = 5977

DILUPBiCGStab:  Solving for omega, Initial residual = 9.79647e-11, Final residual = 9.79647e-11, No Iterations 0
ExecutionTime = 205.42 s  ClockTime = 245 s

Time = 5978

DILUPBiCGStab:  Solving for omega, Initial residual = 9.79647e-11, Final residual = 9.79647e-11, No Iterations 0
ExecutionTime = 205.45 s  ClockTime = 245 s

Time = 5979

DILUPBiCGStab:  Solving for omega, Initial residual = 9.79647e-11, Final residual = 9.79647e-11, No Iterations 0
ExecutionTime = 205.49 s  ClockTime = 245 s

Time = 5980

DILUPBiCGStab:  Solving for omega, Initial residual = 9.79647e-11, Final residual = 9.79647e-11, No Iterations 0
ExecutionTime = 205.52 s  ClockTime = 245 s

Time = 5981

DILUPBiCGStab:  Solving for omega, Initial residual = 9.79647e-11, Final residual = 9.79647e-11, No Iterations 0
ExecutionTime = 205.57 s  ClockTime = 245 s

Time = 5982

DILUPBiCGStab:  Solving for omega, Initial residual = 9.79647e-11, Final residual = 9.79647e-11, No Iterations 0
ExecutionTime = 205.6 s  ClockTime = 245 s

Time = 5983

DILUPBiCGStab:  Solving for omega, Initial residual = 9.79647e-11, Final residual = 9.79647e-11, No Iterations 0
ExecutionTime = 205.64 s  ClockTime = 245 s

Time = 5984

DILUPBiCGStab:  Solving for omega, Initial residual = 9.79647e-11, Final residual = 9.79647e-11, No Iterations 0
ExecutionTime = 205.67 s  ClockTime = 245 s

Time = 5985

DILUPBiCGStab:  Solving for omega, Initial residual = 9.79647e-11, Final residual = 9.79647e-11, No Iterations 0
ExecutionTime = 205.7 s  ClockTime = 245 s

Time = 5986

DILUPBiCGStab:  Solving for omega, Initial residual = 9.79647e-11, Final residual = 9.79647e-11, No Iterations 0
ExecutionTime = 205.73 s  ClockTime = 245 s

Time = 5987

DILUPBiCGStab:  Solving for omega, Initial residual = 9.79647e-11, Final residual = 9.79647e-11, No Iterations 0
ExecutionTime = 205.76 s  ClockTime = 245 s

Time = 5988

DILUPBiCGStab:  Solving for omega, Initial residual = 9.79647e-11, Final residual = 9.79647e-11, No Iterations 0
ExecutionTime = 205.8 s  ClockTime = 245 s

Time = 5989

DILUPBiCGStab:  Solving for omega, Initial residual = 9.79647e-11, Final residual = 9.79647e-11, No Iterations 0
ExecutionTime = 205.83 s  ClockTime = 245 s

Time = 5990

DILUPBiCGStab:  Solving for omega, Initial residual = 9.79647e-11, Final residual = 9.79647e-11, No Iterations 0
ExecutionTime = 205.87 s  ClockTime = 245 s

Time = 5991

DILUPBiCGStab:  Solving for omega, Initial residual = 9.79647e-11, Final residual = 9.79647e-11, No Iterations 0
ExecutionTime = 205.9 s  ClockTime = 245 s

Time = 5992

DILUPBiCGStab:  Solving for omega, Initial residual = 9.79647e-11, Final residual = 9.79647e-11, No Iterations 0
ExecutionTime = 205.93 s  ClockTime = 245 s

Time = 5993

DILUPBiCGStab:  Solving for omega, Initial residual = 9.79647e-11, Final residual = 9.79647e-11, No Iterations 0
ExecutionTime = 205.97 s  ClockTime = 245 s

Time = 5994

DILUPBiCGStab:  Solving for omega, Initial residual = 9.79647e-11, Final residual = 9.79647e-11, No Iterations 0
ExecutionTime = 206 s  ClockTime = 245 s

Time = 5995

DILUPBiCGStab:  Solving for omega, Initial residual = 9.79647e-11, Final residual = 9.79647e-11, No Iterations 0
ExecutionTime = 206.03 s  ClockTime = 245 s

Time = 5996

DILUPBiCGStab:  Solving for omega, Initial residual = 9.79647e-11, Final residual = 9.79647e-11, No Iterations 0
ExecutionTime = 206.07 s  ClockTime = 246 s

Time = 5997

DILUPBiCGStab:  Solving for omega, Initial residual = 9.79647e-11, Final residual = 9.79647e-11, No Iterations 0
ExecutionTime = 206.13 s  ClockTime = 246 s

Time = 5998

DILUPBiCGStab:  Solving for omega, Initial residual = 9.79647e-11, Final residual = 9.79647e-11, No Iterations 0
ExecutionTime = 206.16 s  ClockTime = 246 s

Time = 5999

DILUPBiCGStab:  Solving for omega, Initial residual = 9.79647e-11, Final residual = 9.79647e-11, No Iterations 0
ExecutionTime = 206.19 s  ClockTime = 246 s

Time = 6000

DILUPBiCGStab:  Solving for omega, Initial residual = 9.79647e-11, Final residual = 9.79647e-11, No Iterations 0
ExecutionTime = 206.44 s  ClockTime = 247 s

yPlus yPlus1 write:
    writing field yPlus
    patch bottom y+ : min = 0.0463564, max = 1.33179, average = 0.672743
End

Finalising parallel run
