/*---------------------------------------------------------------------------*\
| =========                 |                                                 |
| \\      /  F ield         | OpenFOAM: The Open Source CFD Toolbox           |
|  \\    /   O peration     | Version:  2506                                  |
|   \\  /    A nd           | Website:  www.openfoam.com                      |
|    \\/     M anipulation  |                                                 |
\*---------------------------------------------------------------------------*/
Build  : _615aae61-20250627 OPENFOAM=2506 version=2506
Arch   : "LSB;label=32;scalar=64"
Exec   : frozenFoam -parallel
Date   : Oct 13 2025
Time   : 08:23:23
Host   : e244eec2c1a9
PID    : 296
I/O    : uncollated
Case   : /home/openfoam/OpenFOAM/openfoam-v2506/run/h42_scratchles
nProcs : 4
Hosts  :
(
    (e244eec2c1a9 4)
)
Pstream initialized with:
    node communication : off [type=host] (4 ranks, 1 nodes)
    topology controls  : none
    consensus exchange : 0 (tuning: 0)
    exchange algorithm : 0
    commsType          : nonBlocking
    polling iterations : 0
trapFpe: Floating point exception trapping enabled (FOAM_SIGFPE).
fileModificationChecking : Monitoring run-time modified files using timeStampMaster (fileModificationSkew 5, maxFileModificationPolls 20)
allowSystemOperations : Allowing user-supplied system call operations

// * * * * * * * * * * * * * * * * * * * * * * * * * * * * * * * * * * * * * //
Create time

Create mesh for time = 0


SIMPLE: no convergence criteria found. Calculations will run for 6000 steps.

Reading field p

Reading field U

Reading/calculating face flux field phi

Selecting incompressible transport model Newtonian
Selecting turbulence model type RAS
Selecting RAS turbulence model frozenSST
Selecting patchDistMethod meshWave
RAS
{
    RASModel        frozenSST;
    turbulence      on;
    printCoeffs     on;
    alphaK1         0.85;
    alphaK2         1;
    alphaOmega1     0.5;
    alphaOmega2     0.856;
    gamma1          0.555556;
    gamma2          0.44;
    beta1           0.075;
    beta2           0.0828;
    betaStar        0.09;
    a1              0.31;
    b1              1;
    c1              10;
    F3              false;
    decayControl    false;
    kInf            0;
    omegaInf        0;
}

No MRF models present

No finite volume options present

Starting time loop

--> FOAM Warning : 
    From void Foam::timeControl::read(const Foam::dictionary&)
    in file db/functionObjects/timeControl/timeControl.C at line 131
    Reading "system/controlDict/functions/yPlus1" at line 55
    Found deprecated 'outputControl'
    Use 'writeControl' with 'writeInterval'
Time = 1

DILUPBiCGStab:  Solving for omega, Initial residual = 0.0495402, Final residual = 6.19761e-11, No Iterations 9
ExecutionTime = 0.46 s  ClockTime = 1 s

Time = 2

DILUPBiCGStab:  Solving for omega, Initial residual = 0.737579, Final residual = 7.5023e-11, No Iterations 6
ExecutionTime = 0.51 s  ClockTime = 1 s

Time = 3

DILUPBiCGStab:  Solving for omega, Initial residual = 0.086238, Final residual = 6.95207e-11, No Iterations 8
ExecutionTime = 0.56 s  ClockTime = 1 s

Time = 4

DILUPBiCGStab:  Solving for omega, Initial residual = 0.00782285, Final residual = 8.85143e-11, No Iterations 8
ExecutionTime = 0.61 s  ClockTime = 1 s

Time = 5

DILUPBiCGStab:  Solving for omega, Initial residual = 0.00306925, Final residual = 5.3475e-11, No Iterations 8
ExecutionTime = 0.65 s  ClockTime = 1 s

Time = 6

DILUPBiCGStab:  Solving for omega, Initial residual = 0.00209982, Final residual = 6.26053e-11, No Iterations 8
ExecutionTime = 0.7 s  ClockTime = 1 s

Time = 7

DILUPBiCGStab:  Solving for omega, Initial residual = 0.00108403, Final residual = 8.02329e-11, No Iterations 8
ExecutionTime = 0.74 s  ClockTime = 1 s

Time = 8

DILUPBiCGStab:  Solving for omega, Initial residual = 0.000670809, Final residual = 6.09746e-11, No Iterations 8
ExecutionTime = 0.85 s  ClockTime = 1 s

Time = 9

DILUPBiCGStab:  Solving for omega, Initial residual = 0.000387828, Final residual = 7.55435e-11, No Iterations 8
ExecutionTime = 0.91 s  ClockTime = 1 s

Time = 10

DILUPBiCGStab:  Solving for omega, Initial residual = 0.00024571, Final residual = 7.49359e-11, No Iterations 8
ExecutionTime = 0.96 s  ClockTime = 1 s

Time = 11

DILUPBiCGStab:  Solving for omega, Initial residual = 0.000159577, Final residual = 9.13298e-11, No Iterations 8
ExecutionTime = 1.01 s  ClockTime = 1 s

Time = 12

DILUPBiCGStab:  Solving for omega, Initial residual = 0.000112389, Final residual = 9.14628e-11, No Iterations 8
ExecutionTime = 1.05 s  ClockTime = 1 s

Time = 13

DILUPBiCGStab:  Solving for omega, Initial residual = 8.4311e-05, Final residual = 8.6567e-11, No Iterations 8
ExecutionTime = 1.09 s  ClockTime = 1 s

Time = 14

DILUPBiCGStab:  Solving for omega, Initial residual = 6.80012e-05, Final residual = 6.34768e-11, No Iterations 8
ExecutionTime = 1.13 s  ClockTime = 1 s

Time = 15

DILUPBiCGStab:  Solving for omega, Initial residual = 5.79509e-05, Final residual = 6.15949e-11, No Iterations 8
ExecutionTime = 1.17 s  ClockTime = 1 s

Time = 16

DILUPBiCGStab:  Solving for omega, Initial residual = 5.15912e-05, Final residual = 8.97023e-11, No Iterations 7
ExecutionTime = 1.21 s  ClockTime = 2 s

Time = 17

DILUPBiCGStab:  Solving for omega, Initial residual = 4.72528e-05, Final residual = 4.16239e-11, No Iterations 8
ExecutionTime = 1.25 s  ClockTime = 2 s

Time = 18

DILUPBiCGStab:  Solving for omega, Initial residual = 4.40976e-05, Final residual = 3.41655e-11, No Iterations 8
ExecutionTime = 1.29 s  ClockTime = 2 s

Time = 19

DILUPBiCGStab:  Solving for omega, Initial residual = 4.16305e-05, Final residual = 2.62604e-11, No Iterations 8
ExecutionTime = 1.33 s  ClockTime = 2 s

Time = 20

DILUPBiCGStab:  Solving for omega, Initial residual = 3.95928e-05, Final residual = 7.19086e-11, No Iterations 7
ExecutionTime = 1.36 s  ClockTime = 2 s

Time = 21

DILUPBiCGStab:  Solving for omega, Initial residual = 3.78201e-05, Final residual = 6.16785e-11, No Iterations 7
ExecutionTime = 1.39 s  ClockTime = 2 s

Time = 22

DILUPBiCGStab:  Solving for omega, Initial residual = 3.62366e-05, Final residual = 7.00671e-11, No Iterations 7
ExecutionTime = 1.43 s  ClockTime = 2 s

Time = 23

DILUPBiCGStab:  Solving for omega, Initial residual = 3.4779e-05, Final residual = 7.77309e-11, No Iterations 7
ExecutionTime = 1.46 s  ClockTime = 2 s

Time = 24

DILUPBiCGStab:  Solving for omega, Initial residual = 3.34322e-05, Final residual = 8.91232e-11, No Iterations 7
ExecutionTime = 1.5 s  ClockTime = 2 s

Time = 25

DILUPBiCGStab:  Solving for omega, Initial residual = 3.21637e-05, Final residual = 8.74858e-11, No Iterations 7
ExecutionTime = 1.53 s  ClockTime = 2 s

Time = 26

DILUPBiCGStab:  Solving for omega, Initial residual = 3.09748e-05, Final residual = 8.45043e-11, No Iterations 7
ExecutionTime = 1.57 s  ClockTime = 2 s

Time = 27

DILUPBiCGStab:  Solving for omega, Initial residual = 2.98455e-05, Final residual = 8.03566e-11, No Iterations 7
ExecutionTime = 1.61 s  ClockTime = 2 s

Time = 28

DILUPBiCGStab:  Solving for omega, Initial residual = 2.87795e-05, Final residual = 7.60811e-11, No Iterations 7
ExecutionTime = 1.65 s  ClockTime = 2 s

Time = 29

DILUPBiCGStab:  Solving for omega, Initial residual = 2.7763e-05, Final residual = 9.75347e-11, No Iterations 6
ExecutionTime = 1.7 s  ClockTime = 2 s

Time = 30

DILUPBiCGStab:  Solving for omega, Initial residual = 2.67985e-05, Final residual = 8.99424e-11, No Iterations 6
ExecutionTime = 1.73 s  ClockTime = 2 s

Time = 31

DILUPBiCGStab:  Solving for omega, Initial residual = 2.588e-05, Final residual = 8.28865e-11, No Iterations 6
ExecutionTime = 1.78 s  ClockTime = 2 s

Time = 32

DILUPBiCGStab:  Solving for omega, Initial residual = 2.50079e-05, Final residual = 7.70223e-11, No Iterations 6
ExecutionTime = 1.81 s  ClockTime = 2 s

Time = 33

DILUPBiCGStab:  Solving for omega, Initial residual = 2.41775e-05, Final residual = 7.39082e-11, No Iterations 6
ExecutionTime = 1.85 s  ClockTime = 2 s

Time = 34

DILUPBiCGStab:  Solving for omega, Initial residual = 2.33884e-05, Final residual = 7.35186e-11, No Iterations 6
ExecutionTime = 1.88 s  ClockTime = 2 s

Time = 35

DILUPBiCGStab:  Solving for omega, Initial residual = 2.26381e-05, Final residual = 7.51813e-11, No Iterations 6
ExecutionTime = 1.91 s  ClockTime = 2 s

Time = 36

DILUPBiCGStab:  Solving for omega, Initial residual = 2.19246e-05, Final residual = 7.64305e-11, No Iterations 6
ExecutionTime = 1.95 s  ClockTime = 2 s

Time = 37

DILUPBiCGStab:  Solving for omega, Initial residual = 2.1245e-05, Final residual = 7.66507e-11, No Iterations 6
ExecutionTime = 1.98 s  ClockTime = 2 s

Time = 38

DILUPBiCGStab:  Solving for omega, Initial residual = 2.05974e-05, Final residual = 7.56986e-11, No Iterations 6
ExecutionTime = 2.02 s  ClockTime = 3 s

Time = 39

DILUPBiCGStab:  Solving for omega, Initial residual = 1.99795e-05, Final residual = 7.35078e-11, No Iterations 6
ExecutionTime = 2.07 s  ClockTime = 3 s

Time = 40

DILUPBiCGStab:  Solving for omega, Initial residual = 1.93895e-05, Final residual = 7.01003e-11, No Iterations 6
ExecutionTime = 2.12 s  ClockTime = 3 s

Time = 41

DILUPBiCGStab:  Solving for omega, Initial residual = 1.88253e-05, Final residual = 6.60743e-11, No Iterations 6
ExecutionTime = 2.16 s  ClockTime = 3 s

Time = 42

DILUPBiCGStab:  Solving for omega, Initial residual = 1.82854e-05, Final residual = 6.16982e-11, No Iterations 6
ExecutionTime = 2.2 s  ClockTime = 3 s

Time = 43

DILUPBiCGStab:  Solving for omega, Initial residual = 1.77683e-05, Final residual = 5.74684e-11, No Iterations 6
ExecutionTime = 2.24 s  ClockTime = 3 s

Time = 44

DILUPBiCGStab:  Solving for omega, Initial residual = 1.72728e-05, Final residual = 5.31854e-11, No Iterations 6
ExecutionTime = 2.28 s  ClockTime = 3 s

Time = 45

DILUPBiCGStab:  Solving for omega, Initial residual = 1.67976e-05, Final residual = 4.92526e-11, No Iterations 6
ExecutionTime = 2.31 s  ClockTime = 3 s

Time = 46

DILUPBiCGStab:  Solving for omega, Initial residual = 1.63415e-05, Final residual = 9.70421e-11, No Iterations 6
ExecutionTime = 2.34 s  ClockTime = 3 s

Time = 47

DILUPBiCGStab:  Solving for omega, Initial residual = 1.59033e-05, Final residual = 9.16232e-11, No Iterations 6
ExecutionTime = 2.38 s  ClockTime = 3 s

Time = 48

DILUPBiCGStab:  Solving for omega, Initial residual = 1.54822e-05, Final residual = 8.61792e-11, No Iterations 6
ExecutionTime = 2.42 s  ClockTime = 3 s

Time = 49

DILUPBiCGStab:  Solving for omega, Initial residual = 1.50772e-05, Final residual = 8.10533e-11, No Iterations 6
ExecutionTime = 2.47 s  ClockTime = 3 s

Time = 50

DILUPBiCGStab:  Solving for omega, Initial residual = 1.46875e-05, Final residual = 7.60905e-11, No Iterations 6
ExecutionTime = 2.52 s  ClockTime = 3 s

Time = 51

DILUPBiCGStab:  Solving for omega, Initial residual = 1.43122e-05, Final residual = 7.12935e-11, No Iterations 6
ExecutionTime = 2.57 s  ClockTime = 3 s

Time = 52

DILUPBiCGStab:  Solving for omega, Initial residual = 1.39504e-05, Final residual = 6.6607e-11, No Iterations 6
ExecutionTime = 2.6 s  ClockTime = 3 s

Time = 53

DILUPBiCGStab:  Solving for omega, Initial residual = 1.36017e-05, Final residual = 6.18116e-11, No Iterations 6
ExecutionTime = 2.63 s  ClockTime = 3 s

Time = 54

DILUPBiCGStab:  Solving for omega, Initial residual = 1.32653e-05, Final residual = 5.68515e-11, No Iterations 6
ExecutionTime = 2.67 s  ClockTime = 3 s

Time = 55

DILUPBiCGStab:  Solving for omega, Initial residual = 1.29408e-05, Final residual = 5.16895e-11, No Iterations 6
ExecutionTime = 2.7 s  ClockTime = 3 s

Time = 56

DILUPBiCGStab:  Solving for omega, Initial residual = 1.26276e-05, Final residual = 4.69055e-11, No Iterations 6
ExecutionTime = 2.74 s  ClockTime = 3 s

Time = 57

DILUPBiCGStab:  Solving for omega, Initial residual = 1.23251e-05, Final residual = 4.61438e-11, No Iterations 6
ExecutionTime = 2.78 s  ClockTime = 3 s

Time = 58

DILUPBiCGStab:  Solving for omega, Initial residual = 1.2033e-05, Final residual = 5.68735e-11, No Iterations 6
ExecutionTime = 2.83 s  ClockTime = 3 s

Time = 59

DILUPBiCGStab:  Solving for omega, Initial residual = 1.17505e-05, Final residual = 7.5086e-11, No Iterations 6
ExecutionTime = 2.87 s  ClockTime = 3 s

Time = 60

DILUPBiCGStab:  Solving for omega, Initial residual = 1.14774e-05, Final residual = 7.3006e-11, No Iterations 6
ExecutionTime = 2.92 s  ClockTime = 4 s

Time = 61

DILUPBiCGStab:  Solving for omega, Initial residual = 1.1213e-05, Final residual = 7.99266e-11, No Iterations 6
ExecutionTime = 2.97 s  ClockTime = 4 s

Time = 62

DILUPBiCGStab:  Solving for omega, Initial residual = 1.0957e-05, Final residual = 5.99362e-11, No Iterations 6
ExecutionTime = 3.01 s  ClockTime = 4 s

Time = 63

DILUPBiCGStab:  Solving for omega, Initial residual = 1.07088e-05, Final residual = 4.79663e-11, No Iterations 6
ExecutionTime = 3.04 s  ClockTime = 4 s

Time = 64

DILUPBiCGStab:  Solving for omega, Initial residual = 1.04682e-05, Final residual = 4.00971e-11, No Iterations 6
ExecutionTime = 3.07 s  ClockTime = 4 s

Time = 65

DILUPBiCGStab:  Solving for omega, Initial residual = 1.02345e-05, Final residual = 3.45883e-11, No Iterations 6
ExecutionTime = 3.11 s  ClockTime = 4 s

Time = 66

DILUPBiCGStab:  Solving for omega, Initial residual = 1.00075e-05, Final residual = 9.09346e-11, No Iterations 5
ExecutionTime = 3.14 s  ClockTime = 4 s

Time = 67

DILUPBiCGStab:  Solving for omega, Initial residual = 9.78684e-06, Final residual = 8.16914e-11, No Iterations 5
ExecutionTime = 3.18 s  ClockTime = 4 s

Time = 68

DILUPBiCGStab:  Solving for omega, Initial residual = 9.57212e-06, Final residual = 7.81872e-11, No Iterations 5
ExecutionTime = 3.21 s  ClockTime = 4 s

Time = 69

DILUPBiCGStab:  Solving for omega, Initial residual = 9.36304e-06, Final residual = 7.55846e-11, No Iterations 5
ExecutionTime = 3.24 s  ClockTime = 4 s

Time = 70

DILUPBiCGStab:  Solving for omega, Initial residual = 9.15931e-06, Final residual = 7.37568e-11, No Iterations 5
ExecutionTime = 3.27 s  ClockTime = 4 s

Time = 71

DILUPBiCGStab:  Solving for omega, Initial residual = 8.96064e-06, Final residual = 7.2514e-11, No Iterations 5
ExecutionTime = 3.31 s  ClockTime = 4 s

Time = 72

DILUPBiCGStab:  Solving for omega, Initial residual = 8.76677e-06, Final residual = 7.16972e-11, No Iterations 5
ExecutionTime = 3.34 s  ClockTime = 4 s

Time = 73

DILUPBiCGStab:  Solving for omega, Initial residual = 8.57745e-06, Final residual = 7.11616e-11, No Iterations 5
ExecutionTime = 3.38 s  ClockTime = 4 s

Time = 74

DILUPBiCGStab:  Solving for omega, Initial residual = 8.39247e-06, Final residual = 7.07777e-11, No Iterations 5
ExecutionTime = 3.42 s  ClockTime = 4 s

Time = 75

DILUPBiCGStab:  Solving for omega, Initial residual = 8.21161e-06, Final residual = 7.03403e-11, No Iterations 5
ExecutionTime = 3.45 s  ClockTime = 4 s

Time = 76

DILUPBiCGStab:  Solving for omega, Initial residual = 8.03468e-06, Final residual = 6.97301e-11, No Iterations 5
ExecutionTime = 3.48 s  ClockTime = 4 s

Time = 77

DILUPBiCGStab:  Solving for omega, Initial residual = 7.86151e-06, Final residual = 6.89498e-11, No Iterations 5
ExecutionTime = 3.52 s  ClockTime = 4 s

Time = 78

DILUPBiCGStab:  Solving for omega, Initial residual = 7.69193e-06, Final residual = 6.79732e-11, No Iterations 5
ExecutionTime = 3.56 s  ClockTime = 4 s

Time = 79

DILUPBiCGStab:  Solving for omega, Initial residual = 7.52579e-06, Final residual = 6.68695e-11, No Iterations 5
ExecutionTime = 3.6 s  ClockTime = 4 s

Time = 80

DILUPBiCGStab:  Solving for omega, Initial residual = 7.36295e-06, Final residual = 6.56512e-11, No Iterations 5
ExecutionTime = 3.63 s  ClockTime = 4 s

Time = 81

DILUPBiCGStab:  Solving for omega, Initial residual = 7.20327e-06, Final residual = 6.43426e-11, No Iterations 5
ExecutionTime = 3.67 s  ClockTime = 4 s

Time = 82

DILUPBiCGStab:  Solving for omega, Initial residual = 7.04665e-06, Final residual = 6.29846e-11, No Iterations 5
ExecutionTime = 3.7 s  ClockTime = 4 s

Time = 83

DILUPBiCGStab:  Solving for omega, Initial residual = 6.89295e-06, Final residual = 6.16368e-11, No Iterations 5
ExecutionTime = 3.73 s  ClockTime = 4 s

Time = 84

DILUPBiCGStab:  Solving for omega, Initial residual = 6.74208e-06, Final residual = 6.02844e-11, No Iterations 5
ExecutionTime = 3.77 s  ClockTime = 5 s

Time = 85

DILUPBiCGStab:  Solving for omega, Initial residual = 6.59395e-06, Final residual = 5.93105e-11, No Iterations 5
ExecutionTime = 3.81 s  ClockTime = 5 s

Time = 86

DILUPBiCGStab:  Solving for omega, Initial residual = 6.44847e-06, Final residual = 5.89044e-11, No Iterations 5
ExecutionTime = 3.85 s  ClockTime = 5 s

Time = 87

DILUPBiCGStab:  Solving for omega, Initial residual = 6.30556e-06, Final residual = 5.7666e-11, No Iterations 5
ExecutionTime = 3.9 s  ClockTime = 5 s

Time = 88

DILUPBiCGStab:  Solving for omega, Initial residual = 6.16514e-06, Final residual = 5.46785e-11, No Iterations 5
ExecutionTime = 3.94 s  ClockTime = 5 s

Time = 89

DILUPBiCGStab:  Solving for omega, Initial residual = 6.02716e-06, Final residual = 5.10054e-11, No Iterations 5
ExecutionTime = 3.98 s  ClockTime = 5 s

Time = 90

DILUPBiCGStab:  Solving for omega, Initial residual = 5.89155e-06, Final residual = 5.13699e-11, No Iterations 5
ExecutionTime = 4.01 s  ClockTime = 5 s

Time = 91

DILUPBiCGStab:  Solving for omega, Initial residual = 5.75825e-06, Final residual = 5.1019e-11, No Iterations 5
ExecutionTime = 4.04 s  ClockTime = 5 s

Time = 92

DILUPBiCGStab:  Solving for omega, Initial residual = 5.62722e-06, Final residual = 5.04324e-11, No Iterations 5
ExecutionTime = 4.07 s  ClockTime = 5 s

Time = 93

DILUPBiCGStab:  Solving for omega, Initial residual = 5.49842e-06, Final residual = 4.98176e-11, No Iterations 5
ExecutionTime = 4.1 s  ClockTime = 5 s

Time = 94

DILUPBiCGStab:  Solving for omega, Initial residual = 5.37179e-06, Final residual = 4.90042e-11, No Iterations 5
ExecutionTime = 4.14 s  ClockTime = 5 s

Time = 95

DILUPBiCGStab:  Solving for omega, Initial residual = 5.24732e-06, Final residual = 4.79994e-11, No Iterations 5
ExecutionTime = 4.17 s  ClockTime = 5 s

Time = 96

DILUPBiCGStab:  Solving for omega, Initial residual = 5.12496e-06, Final residual = 4.71398e-11, No Iterations 5
ExecutionTime = 4.21 s  ClockTime = 5 s

Time = 97

DILUPBiCGStab:  Solving for omega, Initial residual = 5.00468e-06, Final residual = 4.63028e-11, No Iterations 5
ExecutionTime = 4.24 s  ClockTime = 5 s

Time = 98

DILUPBiCGStab:  Solving for omega, Initial residual = 4.88646e-06, Final residual = 4.55379e-11, No Iterations 5
ExecutionTime = 4.27 s  ClockTime = 5 s

Time = 99

DILUPBiCGStab:  Solving for omega, Initial residual = 4.77027e-06, Final residual = 4.45094e-11, No Iterations 5
ExecutionTime = 4.31 s  ClockTime = 5 s

Time = 100

DILUPBiCGStab:  Solving for omega, Initial residual = 4.65608e-06, Final residual = 4.36348e-11, No Iterations 5
ExecutionTime = 4.35 s  ClockTime = 5 s

Time = 101

DILUPBiCGStab:  Solving for omega, Initial residual = 4.54387e-06, Final residual = 4.2797e-11, No Iterations 5
ExecutionTime = 4.38 s  ClockTime = 5 s

Time = 102

DILUPBiCGStab:  Solving for omega, Initial residual = 4.43362e-06, Final residual = 4.19186e-11, No Iterations 5
ExecutionTime = 4.42 s  ClockTime = 5 s

Time = 103

DILUPBiCGStab:  Solving for omega, Initial residual = 4.32532e-06, Final residual = 4.14829e-11, No Iterations 5
ExecutionTime = 4.47 s  ClockTime = 5 s

Time = 104

DILUPBiCGStab:  Solving for omega, Initial residual = 4.21898e-06, Final residual = 4.04984e-11, No Iterations 5
ExecutionTime = 4.51 s  ClockTime = 5 s

Time = 105

DILUPBiCGStab:  Solving for omega, Initial residual = 4.11458e-06, Final residual = 3.95293e-11, No Iterations 5
ExecutionTime = 4.55 s  ClockTime = 5 s

Time = 106

DILUPBiCGStab:  Solving for omega, Initial residual = 4.01213e-06, Final residual = 3.85998e-11, No Iterations 5
ExecutionTime = 4.6 s  ClockTime = 5 s

Time = 107

DILUPBiCGStab:  Solving for omega, Initial residual = 3.91163e-06, Final residual = 3.75762e-11, No Iterations 5
ExecutionTime = 4.64 s  ClockTime = 5 s

Time = 108

DILUPBiCGStab:  Solving for omega, Initial residual = 3.81306e-06, Final residual = 3.64981e-11, No Iterations 5
ExecutionTime = 4.68 s  ClockTime = 5 s

Time = 109

DILUPBiCGStab:  Solving for omega, Initial residual = 3.71643e-06, Final residual = 9.9804e-11, No Iterations 5
ExecutionTime = 4.73 s  ClockTime = 6 s

Time = 110

DILUPBiCGStab:  Solving for omega, Initial residual = 3.62173e-06, Final residual = 9.69576e-11, No Iterations 5
ExecutionTime = 4.76 s  ClockTime = 6 s

Time = 111

DILUPBiCGStab:  Solving for omega, Initial residual = 3.52895e-06, Final residual = 9.49693e-11, No Iterations 5
ExecutionTime = 4.81 s  ClockTime = 6 s

Time = 112

DILUPBiCGStab:  Solving for omega, Initial residual = 3.43809e-06, Final residual = 9.29266e-11, No Iterations 5
ExecutionTime = 4.85 s  ClockTime = 6 s

Time = 113

DILUPBiCGStab:  Solving for omega, Initial residual = 3.34913e-06, Final residual = 9.08641e-11, No Iterations 5
ExecutionTime = 4.9 s  ClockTime = 6 s

Time = 114

DILUPBiCGStab:  Solving for omega, Initial residual = 3.26207e-06, Final residual = 8.87874e-11, No Iterations 5
ExecutionTime = 4.95 s  ClockTime = 6 s

Time = 115

DILUPBiCGStab:  Solving for omega, Initial residual = 3.17689e-06, Final residual = 8.66534e-11, No Iterations 5
ExecutionTime = 5.01 s  ClockTime = 6 s

Time = 116

DILUPBiCGStab:  Solving for omega, Initial residual = 3.09357e-06, Final residual = 8.4508e-11, No Iterations 5
ExecutionTime = 5.06 s  ClockTime = 6 s

Time = 117

DILUPBiCGStab:  Solving for omega, Initial residual = 3.0121e-06, Final residual = 8.23938e-11, No Iterations 5
ExecutionTime = 5.1 s  ClockTime = 6 s

Time = 118

DILUPBiCGStab:  Solving for omega, Initial residual = 2.93246e-06, Final residual = 8.02234e-11, No Iterations 5
ExecutionTime = 5.14 s  ClockTime = 6 s

Time = 119

DILUPBiCGStab:  Solving for omega, Initial residual = 2.85463e-06, Final residual = 7.80501e-11, No Iterations 5
ExecutionTime = 5.18 s  ClockTime = 6 s

Time = 120

DILUPBiCGStab:  Solving for omega, Initial residual = 2.77858e-06, Final residual = 7.58724e-11, No Iterations 5
ExecutionTime = 5.22 s  ClockTime = 6 s

Time = 121

DILUPBiCGStab:  Solving for omega, Initial residual = 2.70431e-06, Final residual = 7.37348e-11, No Iterations 5
ExecutionTime = 5.27 s  ClockTime = 6 s

Time = 122

DILUPBiCGStab:  Solving for omega, Initial residual = 2.63177e-06, Final residual = 7.16153e-11, No Iterations 5
ExecutionTime = 5.32 s  ClockTime = 6 s

Time = 123

DILUPBiCGStab:  Solving for omega, Initial residual = 2.56096e-06, Final residual = 6.95247e-11, No Iterations 5
ExecutionTime = 5.43 s  ClockTime = 6 s

Time = 124

DILUPBiCGStab:  Solving for omega, Initial residual = 2.49183e-06, Final residual = 6.75159e-11, No Iterations 5
ExecutionTime = 5.47 s  ClockTime = 6 s

Time = 125

DILUPBiCGStab:  Solving for omega, Initial residual = 2.42437e-06, Final residual = 6.54809e-11, No Iterations 5
ExecutionTime = 5.51 s  ClockTime = 6 s

Time = 126

DILUPBiCGStab:  Solving for omega, Initial residual = 2.35855e-06, Final residual = 6.34625e-11, No Iterations 5
ExecutionTime = 5.55 s  ClockTime = 6 s

Time = 127

DILUPBiCGStab:  Solving for omega, Initial residual = 2.29434e-06, Final residual = 6.14763e-11, No Iterations 5
ExecutionTime = 5.59 s  ClockTime = 6 s

Time = 128

DILUPBiCGStab:  Solving for omega, Initial residual = 2.23171e-06, Final residual = 5.95317e-11, No Iterations 5
ExecutionTime = 5.62 s  ClockTime = 7 s

Time = 129

DILUPBiCGStab:  Solving for omega, Initial residual = 2.17064e-06, Final residual = 5.76001e-11, No Iterations 5
ExecutionTime = 5.66 s  ClockTime = 7 s

Time = 130

DILUPBiCGStab:  Solving for omega, Initial residual = 2.11109e-06, Final residual = 5.56912e-11, No Iterations 5
ExecutionTime = 5.7 s  ClockTime = 7 s

Time = 131

DILUPBiCGStab:  Solving for omega, Initial residual = 2.05303e-06, Final residual = 5.38069e-11, No Iterations 5
ExecutionTime = 5.74 s  ClockTime = 7 s

Time = 132

DILUPBiCGStab:  Solving for omega, Initial residual = 1.99644e-06, Final residual = 5.19517e-11, No Iterations 5
ExecutionTime = 5.78 s  ClockTime = 7 s

Time = 133

DILUPBiCGStab:  Solving for omega, Initial residual = 1.94129e-06, Final residual = 5.01372e-11, No Iterations 5
ExecutionTime = 5.81 s  ClockTime = 7 s

Time = 134

DILUPBiCGStab:  Solving for omega, Initial residual = 1.88754e-06, Final residual = 4.8361e-11, No Iterations 5
ExecutionTime = 5.85 s  ClockTime = 7 s

Time = 135

DILUPBiCGStab:  Solving for omega, Initial residual = 1.83516e-06, Final residual = 9.99111e-11, No Iterations 4
ExecutionTime = 5.88 s  ClockTime = 7 s

Time = 136

DILUPBiCGStab:  Solving for omega, Initial residual = 1.78414e-06, Final residual = 9.46465e-11, No Iterations 4
ExecutionTime = 5.92 s  ClockTime = 7 s

Time = 137

DILUPBiCGStab:  Solving for omega, Initial residual = 1.73444e-06, Final residual = 9.05077e-11, No Iterations 4
ExecutionTime = 5.96 s  ClockTime = 7 s

Time = 138

DILUPBiCGStab:  Solving for omega, Initial residual = 1.68602e-06, Final residual = 8.69948e-11, No Iterations 4
ExecutionTime = 6 s  ClockTime = 7 s

Time = 139

DILUPBiCGStab:  Solving for omega, Initial residual = 1.63886e-06, Final residual = 8.37658e-11, No Iterations 4
ExecutionTime = 6.04 s  ClockTime = 7 s

Time = 140

DILUPBiCGStab:  Solving for omega, Initial residual = 1.59294e-06, Final residual = 8.06823e-11, No Iterations 4
ExecutionTime = 6.08 s  ClockTime = 7 s

Time = 141

DILUPBiCGStab:  Solving for omega, Initial residual = 1.54821e-06, Final residual = 7.77136e-11, No Iterations 4
ExecutionTime = 6.11 s  ClockTime = 7 s

Time = 142

DILUPBiCGStab:  Solving for omega, Initial residual = 1.50467e-06, Final residual = 7.48328e-11, No Iterations 4
ExecutionTime = 6.15 s  ClockTime = 7 s

Time = 143

DILUPBiCGStab:  Solving for omega, Initial residual = 1.46227e-06, Final residual = 7.20572e-11, No Iterations 4
ExecutionTime = 6.19 s  ClockTime = 7 s

Time = 144

DILUPBiCGStab:  Solving for omega, Initial residual = 1.42099e-06, Final residual = 6.93811e-11, No Iterations 4
ExecutionTime = 6.23 s  ClockTime = 7 s

Time = 145

DILUPBiCGStab:  Solving for omega, Initial residual = 1.38081e-06, Final residual = 6.68052e-11, No Iterations 4
ExecutionTime = 6.27 s  ClockTime = 7 s

Time = 146

DILUPBiCGStab:  Solving for omega, Initial residual = 1.34169e-06, Final residual = 6.43203e-11, No Iterations 4
ExecutionTime = 6.3 s  ClockTime = 7 s

Time = 147

DILUPBiCGStab:  Solving for omega, Initial residual = 1.30362e-06, Final residual = 6.19516e-11, No Iterations 4
ExecutionTime = 6.34 s  ClockTime = 7 s

Time = 148

DILUPBiCGStab:  Solving for omega, Initial residual = 1.26656e-06, Final residual = 5.96523e-11, No Iterations 4
ExecutionTime = 6.38 s  ClockTime = 7 s

Time = 149

DILUPBiCGStab:  Solving for omega, Initial residual = 1.2305e-06, Final residual = 5.74702e-11, No Iterations 4
ExecutionTime = 6.41 s  ClockTime = 7 s

Time = 150

DILUPBiCGStab:  Solving for omega, Initial residual = 1.1954e-06, Final residual = 5.53189e-11, No Iterations 4
ExecutionTime = 6.44 s  ClockTime = 7 s

Time = 151

DILUPBiCGStab:  Solving for omega, Initial residual = 1.16125e-06, Final residual = 5.32298e-11, No Iterations 4
ExecutionTime = 6.48 s  ClockTime = 7 s

Time = 152

DILUPBiCGStab:  Solving for omega, Initial residual = 1.12802e-06, Final residual = 5.12022e-11, No Iterations 4
ExecutionTime = 6.53 s  ClockTime = 8 s

Time = 153

DILUPBiCGStab:  Solving for omega, Initial residual = 1.09568e-06, Final residual = 4.9246e-11, No Iterations 4
ExecutionTime = 6.58 s  ClockTime = 8 s

Time = 154

DILUPBiCGStab:  Solving for omega, Initial residual = 1.06423e-06, Final residual = 9.94844e-11, No Iterations 4
ExecutionTime = 6.64 s  ClockTime = 8 s

Time = 155

DILUPBiCGStab:  Solving for omega, Initial residual = 1.03362e-06, Final residual = 8.44574e-11, No Iterations 4
ExecutionTime = 6.69 s  ClockTime = 8 s

Time = 156

DILUPBiCGStab:  Solving for omega, Initial residual = 1.00385e-06, Final residual = 7.92531e-11, No Iterations 4
ExecutionTime = 6.74 s  ClockTime = 8 s

Time = 157

DILUPBiCGStab:  Solving for omega, Initial residual = 9.74893e-07, Final residual = 7.54867e-11, No Iterations 4
ExecutionTime = 6.83 s  ClockTime = 8 s

Time = 158

DILUPBiCGStab:  Solving for omega, Initial residual = 9.46725e-07, Final residual = 7.20897e-11, No Iterations 4
ExecutionTime = 6.87 s  ClockTime = 8 s

Time = 159

DILUPBiCGStab:  Solving for omega, Initial residual = 9.19328e-07, Final residual = 6.88674e-11, No Iterations 4
ExecutionTime = 6.91 s  ClockTime = 8 s

Time = 160

DILUPBiCGStab:  Solving for omega, Initial residual = 8.92684e-07, Final residual = 6.57683e-11, No Iterations 4
ExecutionTime = 6.95 s  ClockTime = 8 s

Time = 161

DILUPBiCGStab:  Solving for omega, Initial residual = 8.66772e-07, Final residual = 6.27876e-11, No Iterations 4
ExecutionTime = 6.99 s  ClockTime = 8 s

Time = 162

DILUPBiCGStab:  Solving for omega, Initial residual = 8.41575e-07, Final residual = 5.99119e-11, No Iterations 4
ExecutionTime = 7.02 s  ClockTime = 8 s

Time = 163

DILUPBiCGStab:  Solving for omega, Initial residual = 8.17074e-07, Final residual = 5.71832e-11, No Iterations 4
ExecutionTime = 7.06 s  ClockTime = 8 s

Time = 164

DILUPBiCGStab:  Solving for omega, Initial residual = 7.93251e-07, Final residual = 5.45627e-11, No Iterations 4
ExecutionTime = 7.1 s  ClockTime = 8 s

Time = 165

DILUPBiCGStab:  Solving for omega, Initial residual = 7.70089e-07, Final residual = 5.20471e-11, No Iterations 4
ExecutionTime = 7.14 s  ClockTime = 8 s

Time = 166

DILUPBiCGStab:  Solving for omega, Initial residual = 7.47571e-07, Final residual = 4.96637e-11, No Iterations 4
ExecutionTime = 7.18 s  ClockTime = 8 s

Time = 167

DILUPBiCGStab:  Solving for omega, Initial residual = 7.2568e-07, Final residual = 4.73684e-11, No Iterations 4
ExecutionTime = 7.22 s  ClockTime = 8 s

Time = 168

DILUPBiCGStab:  Solving for omega, Initial residual = 7.044e-07, Final residual = 4.51905e-11, No Iterations 4
ExecutionTime = 7.27 s  ClockTime = 8 s

Time = 169

DILUPBiCGStab:  Solving for omega, Initial residual = 6.83716e-07, Final residual = 4.31272e-11, No Iterations 4
ExecutionTime = 7.32 s  ClockTime = 8 s

Time = 170

DILUPBiCGStab:  Solving for omega, Initial residual = 6.6361e-07, Final residual = 4.11641e-11, No Iterations 4
ExecutionTime = 7.36 s  ClockTime = 8 s

Time = 171

DILUPBiCGStab:  Solving for omega, Initial residual = 6.4407e-07, Final residual = 3.92835e-11, No Iterations 4
ExecutionTime = 7.41 s  ClockTime = 8 s

Time = 172

DILUPBiCGStab:  Solving for omega, Initial residual = 6.2508e-07, Final residual = 3.74983e-11, No Iterations 4
ExecutionTime = 7.45 s  ClockTime = 9 s

Time = 173

DILUPBiCGStab:  Solving for omega, Initial residual = 6.06625e-07, Final residual = 3.5808e-11, No Iterations 4
ExecutionTime = 7.49 s  ClockTime = 9 s

Time = 174

DILUPBiCGStab:  Solving for omega, Initial residual = 5.88691e-07, Final residual = 3.42016e-11, No Iterations 4
ExecutionTime = 7.54 s  ClockTime = 9 s

Time = 175

DILUPBiCGStab:  Solving for omega, Initial residual = 5.71266e-07, Final residual = 3.2674e-11, No Iterations 4
ExecutionTime = 7.58 s  ClockTime = 9 s

Time = 176

DILUPBiCGStab:  Solving for omega, Initial residual = 5.54334e-07, Final residual = 3.1222e-11, No Iterations 4
ExecutionTime = 7.62 s  ClockTime = 9 s

Time = 177

DILUPBiCGStab:  Solving for omega, Initial residual = 5.37884e-07, Final residual = 2.98414e-11, No Iterations 4
ExecutionTime = 7.66 s  ClockTime = 9 s

Time = 178

DILUPBiCGStab:  Solving for omega, Initial residual = 5.21903e-07, Final residual = 9.67182e-11, No Iterations 3
ExecutionTime = 7.71 s  ClockTime = 9 s

Time = 179

DILUPBiCGStab:  Solving for omega, Initial residual = 5.06383e-07, Final residual = 9.42483e-11, No Iterations 3
ExecutionTime = 7.74 s  ClockTime = 9 s

Time = 180

DILUPBiCGStab:  Solving for omega, Initial residual = 4.91306e-07, Final residual = 9.0977e-11, No Iterations 3
ExecutionTime = 7.77 s  ClockTime = 9 s

Time = 181

DILUPBiCGStab:  Solving for omega, Initial residual = 4.7666e-07, Final residual = 8.77024e-11, No Iterations 3
ExecutionTime = 7.81 s  ClockTime = 9 s

Time = 182

DILUPBiCGStab:  Solving for omega, Initial residual = 4.62434e-07, Final residual = 8.45261e-11, No Iterations 3
ExecutionTime = 7.85 s  ClockTime = 9 s

Time = 183

DILUPBiCGStab:  Solving for omega, Initial residual = 4.48617e-07, Final residual = 8.14621e-11, No Iterations 3
ExecutionTime = 7.89 s  ClockTime = 9 s

Time = 184

DILUPBiCGStab:  Solving for omega, Initial residual = 4.35197e-07, Final residual = 7.85116e-11, No Iterations 3
ExecutionTime = 7.92 s  ClockTime = 9 s

Time = 185

DILUPBiCGStab:  Solving for omega, Initial residual = 4.22164e-07, Final residual = 7.56722e-11, No Iterations 3
ExecutionTime = 7.96 s  ClockTime = 9 s

Time = 186

DILUPBiCGStab:  Solving for omega, Initial residual = 4.09508e-07, Final residual = 7.29406e-11, No Iterations 3
ExecutionTime = 8 s  ClockTime = 9 s

Time = 187

DILUPBiCGStab:  Solving for omega, Initial residual = 3.97217e-07, Final residual = 7.03129e-11, No Iterations 3
ExecutionTime = 8.04 s  ClockTime = 9 s

Time = 188

DILUPBiCGStab:  Solving for omega, Initial residual = 3.85283e-07, Final residual = 6.77853e-11, No Iterations 3
ExecutionTime = 8.08 s  ClockTime = 9 s

Time = 189

DILUPBiCGStab:  Solving for omega, Initial residual = 3.73695e-07, Final residual = 6.53542e-11, No Iterations 3
ExecutionTime = 8.11 s  ClockTime = 9 s

Time = 190

DILUPBiCGStab:  Solving for omega, Initial residual = 3.62444e-07, Final residual = 6.30159e-11, No Iterations 3
ExecutionTime = 8.14 s  ClockTime = 9 s

Time = 191

DILUPBiCGStab:  Solving for omega, Initial residual = 3.51521e-07, Final residual = 6.0766e-11, No Iterations 3
ExecutionTime = 8.18 s  ClockTime = 9 s

Time = 192

DILUPBiCGStab:  Solving for omega, Initial residual = 3.40916e-07, Final residual = 5.86012e-11, No Iterations 3
ExecutionTime = 8.21 s  ClockTime = 9 s

Time = 193

DILUPBiCGStab:  Solving for omega, Initial residual = 3.30621e-07, Final residual = 5.65182e-11, No Iterations 3
ExecutionTime = 8.25 s  ClockTime = 9 s

Time = 194

DILUPBiCGStab:  Solving for omega, Initial residual = 3.20628e-07, Final residual = 5.45136e-11, No Iterations 3
ExecutionTime = 8.27 s  ClockTime = 9 s

Time = 195

DILUPBiCGStab:  Solving for omega, Initial residual = 3.10927e-07, Final residual = 9.91609e-11, No Iterations 3
ExecutionTime = 8.31 s  ClockTime = 10 s

Time = 196

DILUPBiCGStab:  Solving for omega, Initial residual = 3.01512e-07, Final residual = 4.34301e-11, No Iterations 3
ExecutionTime = 8.36 s  ClockTime = 10 s

Time = 197

DILUPBiCGStab:  Solving for omega, Initial residual = 2.92372e-07, Final residual = 9.33268e-11, No Iterations 3
ExecutionTime = 8.4 s  ClockTime = 10 s

Time = 198

DILUPBiCGStab:  Solving for omega, Initial residual = 2.83503e-07, Final residual = 4.00307e-11, No Iterations 3
ExecutionTime = 8.43 s  ClockTime = 10 s

Time = 199

DILUPBiCGStab:  Solving for omega, Initial residual = 2.74894e-07, Final residual = 8.66494e-11, No Iterations 3
ExecutionTime = 8.47 s  ClockTime = 10 s

Time = 200

DILUPBiCGStab:  Solving for omega, Initial residual = 2.66541e-07, Final residual = 9.40788e-11, No Iterations 3
ExecutionTime = 8.51 s  ClockTime = 10 s

Time = 201

DILUPBiCGStab:  Solving for omega, Initial residual = 2.58433e-07, Final residual = 9.41427e-11, No Iterations 3
ExecutionTime = 8.55 s  ClockTime = 10 s

Time = 202

DILUPBiCGStab:  Solving for omega, Initial residual = 2.50566e-07, Final residual = 9.1934e-11, No Iterations 3
ExecutionTime = 8.59 s  ClockTime = 10 s

Time = 203

DILUPBiCGStab:  Solving for omega, Initial residual = 2.42931e-07, Final residual = 8.94206e-11, No Iterations 3
ExecutionTime = 8.64 s  ClockTime = 10 s

Time = 204

DILUPBiCGStab:  Solving for omega, Initial residual = 2.35524e-07, Final residual = 8.66219e-11, No Iterations 3
ExecutionTime = 8.69 s  ClockTime = 10 s

Time = 205

DILUPBiCGStab:  Solving for omega, Initial residual = 2.28336e-07, Final residual = 8.35789e-11, No Iterations 3
ExecutionTime = 8.73 s  ClockTime = 10 s

Time = 206

DILUPBiCGStab:  Solving for omega, Initial residual = 2.21363e-07, Final residual = 8.04748e-11, No Iterations 3
ExecutionTime = 8.77 s  ClockTime = 10 s

Time = 207

DILUPBiCGStab:  Solving for omega, Initial residual = 2.14598e-07, Final residual = 7.74122e-11, No Iterations 3
ExecutionTime = 8.81 s  ClockTime = 10 s

Time = 208

DILUPBiCGStab:  Solving for omega, Initial residual = 2.08034e-07, Final residual = 7.44524e-11, No Iterations 3
ExecutionTime = 8.84 s  ClockTime = 10 s

Time = 209

DILUPBiCGStab:  Solving for omega, Initial residual = 2.01667e-07, Final residual = 7.1589e-11, No Iterations 3
ExecutionTime = 8.88 s  ClockTime = 10 s

Time = 210

DILUPBiCGStab:  Solving for omega, Initial residual = 1.9549e-07, Final residual = 6.88526e-11, No Iterations 3
ExecutionTime = 8.92 s  ClockTime = 10 s

Time = 211

DILUPBiCGStab:  Solving for omega, Initial residual = 1.89499e-07, Final residual = 6.6232e-11, No Iterations 3
ExecutionTime = 8.96 s  ClockTime = 10 s

Time = 212

DILUPBiCGStab:  Solving for omega, Initial residual = 1.83687e-07, Final residual = 6.37282e-11, No Iterations 3
ExecutionTime = 9 s  ClockTime = 10 s

Time = 213

DILUPBiCGStab:  Solving for omega, Initial residual = 1.78049e-07, Final residual = 6.13347e-11, No Iterations 3
ExecutionTime = 9.04 s  ClockTime = 10 s

Time = 214

DILUPBiCGStab:  Solving for omega, Initial residual = 1.72581e-07, Final residual = 5.90448e-11, No Iterations 3
ExecutionTime = 9.07 s  ClockTime = 10 s

Time = 215

DILUPBiCGStab:  Solving for omega, Initial residual = 1.67278e-07, Final residual = 5.68534e-11, No Iterations 3
ExecutionTime = 9.11 s  ClockTime = 10 s

Time = 216

DILUPBiCGStab:  Solving for omega, Initial residual = 1.62135e-07, Final residual = 5.47546e-11, No Iterations 3
ExecutionTime = 9.14 s  ClockTime = 10 s

Time = 217

DILUPBiCGStab:  Solving for omega, Initial residual = 1.57146e-07, Final residual = 5.27437e-11, No Iterations 3
ExecutionTime = 9.18 s  ClockTime = 10 s

Time = 218

DILUPBiCGStab:  Solving for omega, Initial residual = 1.52308e-07, Final residual = 9.82279e-11, No Iterations 2
ExecutionTime = 9.22 s  ClockTime = 11 s

Time = 219

DILUPBiCGStab:  Solving for omega, Initial residual = 1.47623e-07, Final residual = 4.02146e-11, No Iterations 3
ExecutionTime = 9.27 s  ClockTime = 11 s

Time = 220

DILUPBiCGStab:  Solving for omega, Initial residual = 1.43074e-07, Final residual = 4.46742e-11, No Iterations 3
ExecutionTime = 9.32 s  ClockTime = 11 s

Time = 221

DILUPBiCGStab:  Solving for omega, Initial residual = 1.38661e-07, Final residual = 9.94026e-11, No Iterations 2
ExecutionTime = 9.36 s  ClockTime = 11 s

Time = 222

DILUPBiCGStab:  Solving for omega, Initial residual = 1.34389e-07, Final residual = 3.66253e-11, No Iterations 3
ExecutionTime = 9.41 s  ClockTime = 11 s

Time = 223

DILUPBiCGStab:  Solving for omega, Initial residual = 1.3024e-07, Final residual = 4.05484e-11, No Iterations 3
ExecutionTime = 9.45 s  ClockTime = 11 s

Time = 224

DILUPBiCGStab:  Solving for omega, Initial residual = 1.26217e-07, Final residual = 8.95338e-11, No Iterations 2
ExecutionTime = 9.49 s  ClockTime = 11 s

Time = 225

DILUPBiCGStab:  Solving for omega, Initial residual = 1.22321e-07, Final residual = 3.31176e-11, No Iterations 3
ExecutionTime = 9.52 s  ClockTime = 11 s

Time = 226

DILUPBiCGStab:  Solving for omega, Initial residual = 1.18539e-07, Final residual = 9.14289e-11, No Iterations 2
ExecutionTime = 9.55 s  ClockTime = 11 s

Time = 227

DILUPBiCGStab:  Solving for omega, Initial residual = 1.14877e-07, Final residual = 9.98413e-11, No Iterations 2
ExecutionTime = 9.59 s  ClockTime = 11 s

Time = 228

DILUPBiCGStab:  Solving for omega, Initial residual = 1.11326e-07, Final residual = 9.67805e-11, No Iterations 2
ExecutionTime = 9.62 s  ClockTime = 11 s

Time = 229

DILUPBiCGStab:  Solving for omega, Initial residual = 1.07883e-07, Final residual = 9.38524e-11, No Iterations 2
ExecutionTime = 9.66 s  ClockTime = 11 s

Time = 230

DILUPBiCGStab:  Solving for omega, Initial residual = 1.04545e-07, Final residual = 9.09295e-11, No Iterations 2
ExecutionTime = 9.7 s  ClockTime = 11 s

Time = 231

DILUPBiCGStab:  Solving for omega, Initial residual = 1.01309e-07, Final residual = 8.80578e-11, No Iterations 2
ExecutionTime = 9.74 s  ClockTime = 11 s

Time = 232

DILUPBiCGStab:  Solving for omega, Initial residual = 9.81712e-08, Final residual = 8.52537e-11, No Iterations 2
ExecutionTime = 9.77 s  ClockTime = 11 s

Time = 233

DILUPBiCGStab:  Solving for omega, Initial residual = 9.51291e-08, Final residual = 8.25244e-11, No Iterations 2
ExecutionTime = 9.81 s  ClockTime = 11 s

Time = 234

DILUPBiCGStab:  Solving for omega, Initial residual = 9.21798e-08, Final residual = 7.98727e-11, No Iterations 2
ExecutionTime = 9.84 s  ClockTime = 11 s

Time = 235

DILUPBiCGStab:  Solving for omega, Initial residual = 8.93207e-08, Final residual = 7.72997e-11, No Iterations 2
ExecutionTime = 9.88 s  ClockTime = 11 s

Time = 236

DILUPBiCGStab:  Solving for omega, Initial residual = 8.6549e-08, Final residual = 7.4805e-11, No Iterations 2
ExecutionTime = 9.92 s  ClockTime = 11 s

Time = 237

DILUPBiCGStab:  Solving for omega, Initial residual = 8.38622e-08, Final residual = 7.23878e-11, No Iterations 2
ExecutionTime = 9.95 s  ClockTime = 11 s

Time = 238

DILUPBiCGStab:  Solving for omega, Initial residual = 8.12577e-08, Final residual = 7.00467e-11, No Iterations 2
ExecutionTime = 9.98 s  ClockTime = 11 s

Time = 239

DILUPBiCGStab:  Solving for omega, Initial residual = 7.8733e-08, Final residual = 6.77802e-11, No Iterations 2
ExecutionTime = 10.02 s  ClockTime = 11 s

Time = 240

DILUPBiCGStab:  Solving for omega, Initial residual = 7.62859e-08, Final residual = 6.55864e-11, No Iterations 2
ExecutionTime = 10.05 s  ClockTime = 11 s

Time = 241

DILUPBiCGStab:  Solving for omega, Initial residual = 7.39138e-08, Final residual = 6.34634e-11, No Iterations 2
ExecutionTime = 10.08 s  ClockTime = 11 s

Time = 242

DILUPBiCGStab:  Solving for omega, Initial residual = 7.16147e-08, Final residual = 6.14094e-11, No Iterations 2
ExecutionTime = 10.12 s  ClockTime = 12 s

Time = 243

DILUPBiCGStab:  Solving for omega, Initial residual = 6.93862e-08, Final residual = 5.94222e-11, No Iterations 2
ExecutionTime = 10.16 s  ClockTime = 12 s

Time = 244

DILUPBiCGStab:  Solving for omega, Initial residual = 6.72263e-08, Final residual = 5.75001e-11, No Iterations 2
ExecutionTime = 10.2 s  ClockTime = 12 s

Time = 245

DILUPBiCGStab:  Solving for omega, Initial residual = 6.5133e-08, Final residual = 5.56408e-11, No Iterations 2
ExecutionTime = 10.24 s  ClockTime = 12 s

Time = 246

DILUPBiCGStab:  Solving for omega, Initial residual = 6.31041e-08, Final residual = 9.95448e-11, No Iterations 2
ExecutionTime = 10.27 s  ClockTime = 12 s

Time = 247

DILUPBiCGStab:  Solving for omega, Initial residual = 6.11396e-08, Final residual = 9.74614e-11, No Iterations 2
ExecutionTime = 10.31 s  ClockTime = 12 s

Time = 248

DILUPBiCGStab:  Solving for omega, Initial residual = 5.92353e-08, Final residual = 9.45757e-11, No Iterations 2
ExecutionTime = 10.35 s  ClockTime = 12 s

Time = 249

DILUPBiCGStab:  Solving for omega, Initial residual = 5.73897e-08, Final residual = 9.18994e-11, No Iterations 2
ExecutionTime = 10.38 s  ClockTime = 12 s

Time = 250

DILUPBiCGStab:  Solving for omega, Initial residual = 5.5601e-08, Final residual = 8.91186e-11, No Iterations 2
ExecutionTime = 10.42 s  ClockTime = 12 s

Time = 251

DILUPBiCGStab:  Solving for omega, Initial residual = 5.38675e-08, Final residual = 8.64418e-11, No Iterations 2
ExecutionTime = 10.47 s  ClockTime = 12 s

Time = 252

DILUPBiCGStab:  Solving for omega, Initial residual = 5.21874e-08, Final residual = 8.3799e-11, No Iterations 2
ExecutionTime = 10.5 s  ClockTime = 12 s

Time = 253

DILUPBiCGStab:  Solving for omega, Initial residual = 5.05593e-08, Final residual = 8.12322e-11, No Iterations 2
ExecutionTime = 10.54 s  ClockTime = 12 s

Time = 254

DILUPBiCGStab:  Solving for omega, Initial residual = 4.89814e-08, Final residual = 7.87277e-11, No Iterations 2
ExecutionTime = 10.57 s  ClockTime = 12 s

Time = 255

DILUPBiCGStab:  Solving for omega, Initial residual = 4.74524e-08, Final residual = 7.62938e-11, No Iterations 2
ExecutionTime = 10.61 s  ClockTime = 12 s

Time = 256

DILUPBiCGStab:  Solving for omega, Initial residual = 4.59706e-08, Final residual = 7.39273e-11, No Iterations 2
ExecutionTime = 10.65 s  ClockTime = 12 s

Time = 257

DILUPBiCGStab:  Solving for omega, Initial residual = 4.45348e-08, Final residual = 7.16292e-11, No Iterations 2
ExecutionTime = 10.68 s  ClockTime = 12 s

Time = 258

DILUPBiCGStab:  Solving for omega, Initial residual = 4.31434e-08, Final residual = 6.9398e-11, No Iterations 2
ExecutionTime = 10.72 s  ClockTime = 12 s

Time = 259

DILUPBiCGStab:  Solving for omega, Initial residual = 4.17951e-08, Final residual = 6.72329e-11, No Iterations 2
ExecutionTime = 10.76 s  ClockTime = 12 s

Time = 260

DILUPBiCGStab:  Solving for omega, Initial residual = 4.04886e-08, Final residual = 6.51325e-11, No Iterations 2
ExecutionTime = 10.8 s  ClockTime = 12 s

Time = 261

DILUPBiCGStab:  Solving for omega, Initial residual = 3.92227e-08, Final residual = 6.30955e-11, No Iterations 2
ExecutionTime = 10.84 s  ClockTime = 12 s

Time = 262

DILUPBiCGStab:  Solving for omega, Initial residual = 3.79961e-08, Final residual = 6.11203e-11, No Iterations 2
ExecutionTime = 10.89 s  ClockTime = 12 s

Time = 263

DILUPBiCGStab:  Solving for omega, Initial residual = 3.68076e-08, Final residual = 5.92053e-11, No Iterations 2
ExecutionTime = 10.93 s  ClockTime = 12 s

Time = 264

DILUPBiCGStab:  Solving for omega, Initial residual = 3.5656e-08, Final residual = 5.73491e-11, No Iterations 2
ExecutionTime = 10.96 s  ClockTime = 12 s

Time = 265

DILUPBiCGStab:  Solving for omega, Initial residual = 3.45401e-08, Final residual = 5.55501e-11, No Iterations 2
ExecutionTime = 11 s  ClockTime = 12 s

Time = 266

DILUPBiCGStab:  Solving for omega, Initial residual = 3.3459e-08, Final residual = 5.38066e-11, No Iterations 2
ExecutionTime = 11.03 s  ClockTime = 12 s

Time = 267

DILUPBiCGStab:  Solving for omega, Initial residual = 3.24116e-08, Final residual = 5.21172e-11, No Iterations 2
ExecutionTime = 11.07 s  ClockTime = 13 s

Time = 268

DILUPBiCGStab:  Solving for omega, Initial residual = 3.13967e-08, Final residual = 5.04804e-11, No Iterations 2
ExecutionTime = 11.11 s  ClockTime = 13 s

Time = 269

DILUPBiCGStab:  Solving for omega, Initial residual = 3.04134e-08, Final residual = 4.88945e-11, No Iterations 2
ExecutionTime = 11.15 s  ClockTime = 13 s

Time = 270

DILUPBiCGStab:  Solving for omega, Initial residual = 2.94607e-08, Final residual = 4.73581e-11, No Iterations 2
ExecutionTime = 11.2 s  ClockTime = 13 s

Time = 271

DILUPBiCGStab:  Solving for omega, Initial residual = 2.85377e-08, Final residual = 4.58698e-11, No Iterations 2
ExecutionTime = 11.24 s  ClockTime = 13 s

Time = 272

DILUPBiCGStab:  Solving for omega, Initial residual = 2.76435e-08, Final residual = 4.4428e-11, No Iterations 2
ExecutionTime = 11.28 s  ClockTime = 13 s

Time = 273

DILUPBiCGStab:  Solving for omega, Initial residual = 2.67772e-08, Final residual = 4.30315e-11, No Iterations 2
ExecutionTime = 11.31 s  ClockTime = 13 s

Time = 274

DILUPBiCGStab:  Solving for omega, Initial residual = 2.59379e-08, Final residual = 4.16787e-11, No Iterations 2
ExecutionTime = 11.35 s  ClockTime = 13 s

Time = 275

DILUPBiCGStab:  Solving for omega, Initial residual = 2.51247e-08, Final residual = 4.03684e-11, No Iterations 2
ExecutionTime = 11.39 s  ClockTime = 13 s

Time = 276

DILUPBiCGStab:  Solving for omega, Initial residual = 2.4337e-08, Final residual = 3.90993e-11, No Iterations 2
ExecutionTime = 11.43 s  ClockTime = 13 s

Time = 277

DILUPBiCGStab:  Solving for omega, Initial residual = 2.35738e-08, Final residual = 3.78701e-11, No Iterations 2
ExecutionTime = 11.48 s  ClockTime = 13 s

Time = 278

DILUPBiCGStab:  Solving for omega, Initial residual = 2.28345e-08, Final residual = 3.66796e-11, No Iterations 2
ExecutionTime = 11.52 s  ClockTime = 13 s

Time = 279

DILUPBiCGStab:  Solving for omega, Initial residual = 2.21183e-08, Final residual = 3.55265e-11, No Iterations 2
ExecutionTime = 11.56 s  ClockTime = 13 s

Time = 280

DILUPBiCGStab:  Solving for omega, Initial residual = 2.14244e-08, Final residual = 3.44097e-11, No Iterations 2
ExecutionTime = 11.59 s  ClockTime = 13 s

Time = 281

DILUPBiCGStab:  Solving for omega, Initial residual = 2.07522e-08, Final residual = 3.3328e-11, No Iterations 2
ExecutionTime = 11.62 s  ClockTime = 13 s

Time = 282

DILUPBiCGStab:  Solving for omega, Initial residual = 2.01011e-08, Final residual = 3.22804e-11, No Iterations 2
ExecutionTime = 11.66 s  ClockTime = 13 s

Time = 283

DILUPBiCGStab:  Solving for omega, Initial residual = 1.94702e-08, Final residual = 3.12658e-11, No Iterations 2
ExecutionTime = 11.69 s  ClockTime = 13 s

Time = 284

DILUPBiCGStab:  Solving for omega, Initial residual = 1.88592e-08, Final residual = 3.02832e-11, No Iterations 2
ExecutionTime = 11.73 s  ClockTime = 13 s

Time = 285

DILUPBiCGStab:  Solving for omega, Initial residual = 1.82672e-08, Final residual = 2.93313e-11, No Iterations 2
ExecutionTime = 11.77 s  ClockTime = 13 s

Time = 286

DILUPBiCGStab:  Solving for omega, Initial residual = 1.76938e-08, Final residual = 2.84094e-11, No Iterations 2
ExecutionTime = 11.81 s  ClockTime = 13 s

Time = 287

DILUPBiCGStab:  Solving for omega, Initial residual = 1.71383e-08, Final residual = 2.75166e-11, No Iterations 2
ExecutionTime = 11.85 s  ClockTime = 13 s

Time = 288

DILUPBiCGStab:  Solving for omega, Initial residual = 1.66002e-08, Final residual = 2.6652e-11, No Iterations 2
ExecutionTime = 11.88 s  ClockTime = 13 s

Time = 289

DILUPBiCGStab:  Solving for omega, Initial residual = 1.60789e-08, Final residual = 2.58146e-11, No Iterations 2
ExecutionTime = 11.92 s  ClockTime = 13 s

Time = 290

DILUPBiCGStab:  Solving for omega, Initial residual = 1.5574e-08, Final residual = 2.50037e-11, No Iterations 2
ExecutionTime = 11.96 s  ClockTime = 13 s

Time = 291

DILUPBiCGStab:  Solving for omega, Initial residual = 1.50849e-08, Final residual = 2.42182e-11, No Iterations 2
ExecutionTime = 12 s  ClockTime = 14 s

Time = 292

DILUPBiCGStab:  Solving for omega, Initial residual = 1.46111e-08, Final residual = 2.34575e-11, No Iterations 2
ExecutionTime = 12.04 s  ClockTime = 14 s

Time = 293

DILUPBiCGStab:  Solving for omega, Initial residual = 1.41522e-08, Final residual = 2.27208e-11, No Iterations 2
ExecutionTime = 12.08 s  ClockTime = 14 s

Time = 294

DILUPBiCGStab:  Solving for omega, Initial residual = 1.37076e-08, Final residual = 9.73633e-11, No Iterations 1
ExecutionTime = 12.12 s  ClockTime = 14 s

Time = 295

DILUPBiCGStab:  Solving for omega, Initial residual = 1.32801e-08, Final residual = 9.45952e-11, No Iterations 1
ExecutionTime = 12.15 s  ClockTime = 14 s

Time = 296

DILUPBiCGStab:  Solving for omega, Initial residual = 1.2866e-08, Final residual = 9.20957e-11, No Iterations 1
ExecutionTime = 12.18 s  ClockTime = 14 s

Time = 297

DILUPBiCGStab:  Solving for omega, Initial residual = 1.24649e-08, Final residual = 8.99684e-11, No Iterations 1
ExecutionTime = 12.21 s  ClockTime = 14 s

Time = 298

DILUPBiCGStab:  Solving for omega, Initial residual = 1.20763e-08, Final residual = 8.79124e-11, No Iterations 1
ExecutionTime = 12.25 s  ClockTime = 14 s

Time = 299

DILUPBiCGStab:  Solving for omega, Initial residual = 1.16999e-08, Final residual = 8.57896e-11, No Iterations 1
ExecutionTime = 12.28 s  ClockTime = 14 s

Time = 300

DILUPBiCGStab:  Solving for omega, Initial residual = 1.13351e-08, Final residual = 8.35964e-11, No Iterations 1
ExecutionTime = 12.31 s  ClockTime = 14 s

Time = 301

DILUPBiCGStab:  Solving for omega, Initial residual = 1.09816e-08, Final residual = 8.1367e-11, No Iterations 1
ExecutionTime = 12.35 s  ClockTime = 14 s

Time = 302

DILUPBiCGStab:  Solving for omega, Initial residual = 1.06391e-08, Final residual = 7.91369e-11, No Iterations 1
ExecutionTime = 12.38 s  ClockTime = 14 s

Time = 303

DILUPBiCGStab:  Solving for omega, Initial residual = 1.03073e-08, Final residual = 7.69287e-11, No Iterations 1
ExecutionTime = 12.42 s  ClockTime = 14 s

Time = 304

DILUPBiCGStab:  Solving for omega, Initial residual = 9.9857e-09, Final residual = 7.4756e-11, No Iterations 1
ExecutionTime = 12.45 s  ClockTime = 14 s

Time = 305

DILUPBiCGStab:  Solving for omega, Initial residual = 9.67412e-09, Final residual = 7.26264e-11, No Iterations 1
ExecutionTime = 12.49 s  ClockTime = 14 s

Time = 306

DILUPBiCGStab:  Solving for omega, Initial residual = 9.37221e-09, Final residual = 7.05439e-11, No Iterations 1
ExecutionTime = 12.53 s  ClockTime = 14 s

Time = 307

DILUPBiCGStab:  Solving for omega, Initial residual = 9.07968e-09, Final residual = 6.85104e-11, No Iterations 1
ExecutionTime = 12.57 s  ClockTime = 14 s

Time = 308

DILUPBiCGStab:  Solving for omega, Initial residual = 8.79625e-09, Final residual = 6.65269e-11, No Iterations 1
ExecutionTime = 12.62 s  ClockTime = 14 s

Time = 309

DILUPBiCGStab:  Solving for omega, Initial residual = 8.52162e-09, Final residual = 6.45935e-11, No Iterations 1
ExecutionTime = 12.66 s  ClockTime = 14 s

Time = 310

DILUPBiCGStab:  Solving for omega, Initial residual = 8.25554e-09, Final residual = 6.27098e-11, No Iterations 1
ExecutionTime = 12.7 s  ClockTime = 14 s

Time = 311

DILUPBiCGStab:  Solving for omega, Initial residual = 7.99773e-09, Final residual = 6.08755e-11, No Iterations 1
ExecutionTime = 12.74 s  ClockTime = 14 s

Time = 312

DILUPBiCGStab:  Solving for omega, Initial residual = 7.74795e-09, Final residual = 5.90898e-11, No Iterations 1
ExecutionTime = 12.78 s  ClockTime = 14 s

Time = 313

DILUPBiCGStab:  Solving for omega, Initial residual = 7.50594e-09, Final residual = 5.73521e-11, No Iterations 1
ExecutionTime = 12.82 s  ClockTime = 14 s

Time = 314

DILUPBiCGStab:  Solving for omega, Initial residual = 7.27147e-09, Final residual = 5.56613e-11, No Iterations 1
ExecutionTime = 12.86 s  ClockTime = 14 s

Time = 315

DILUPBiCGStab:  Solving for omega, Initial residual = 7.0443e-09, Final residual = 5.40168e-11, No Iterations 1
ExecutionTime = 12.9 s  ClockTime = 15 s

Time = 316

DILUPBiCGStab:  Solving for omega, Initial residual = 6.8242e-09, Final residual = 5.24174e-11, No Iterations 1
ExecutionTime = 12.94 s  ClockTime = 15 s

Time = 317

DILUPBiCGStab:  Solving for omega, Initial residual = 6.61097e-09, Final residual = 5.08624e-11, No Iterations 1
ExecutionTime = 12.98 s  ClockTime = 15 s

Time = 318

DILUPBiCGStab:  Solving for omega, Initial residual = 6.40439e-09, Final residual = 4.93508e-11, No Iterations 1
ExecutionTime = 13.02 s  ClockTime = 15 s

Time = 319

DILUPBiCGStab:  Solving for omega, Initial residual = 6.20425e-09, Final residual = 4.78815e-11, No Iterations 1
ExecutionTime = 13.06 s  ClockTime = 15 s

Time = 320

DILUPBiCGStab:  Solving for omega, Initial residual = 6.01035e-09, Final residual = 4.64537e-11, No Iterations 1
ExecutionTime = 13.09 s  ClockTime = 15 s

Time = 321

DILUPBiCGStab:  Solving for omega, Initial residual = 5.8225e-09, Final residual = 4.50663e-11, No Iterations 1
ExecutionTime = 13.12 s  ClockTime = 15 s

Time = 322

DILUPBiCGStab:  Solving for omega, Initial residual = 5.64051e-09, Final residual = 4.37185e-11, No Iterations 1
ExecutionTime = 13.15 s  ClockTime = 15 s

Time = 323

DILUPBiCGStab:  Solving for omega, Initial residual = 5.4642e-09, Final residual = 4.24092e-11, No Iterations 1
ExecutionTime = 13.19 s  ClockTime = 15 s

Time = 324

DILUPBiCGStab:  Solving for omega, Initial residual = 5.2934e-09, Final residual = 4.11374e-11, No Iterations 1
ExecutionTime = 13.22 s  ClockTime = 15 s

Time = 325

DILUPBiCGStab:  Solving for omega, Initial residual = 5.12793e-09, Final residual = 3.99023e-11, No Iterations 1
ExecutionTime = 13.25 s  ClockTime = 15 s

Time = 326

DILUPBiCGStab:  Solving for omega, Initial residual = 4.96763e-09, Final residual = 3.87029e-11, No Iterations 1
ExecutionTime = 13.29 s  ClockTime = 15 s

Time = 327

DILUPBiCGStab:  Solving for omega, Initial residual = 4.81233e-09, Final residual = 3.75382e-11, No Iterations 1
ExecutionTime = 13.32 s  ClockTime = 15 s

Time = 328

DILUPBiCGStab:  Solving for omega, Initial residual = 4.66189e-09, Final residual = 3.64075e-11, No Iterations 1
ExecutionTime = 13.36 s  ClockTime = 15 s

Time = 329

DILUPBiCGStab:  Solving for omega, Initial residual = 4.51615e-09, Final residual = 3.53097e-11, No Iterations 1
ExecutionTime = 13.4 s  ClockTime = 15 s

Time = 330

DILUPBiCGStab:  Solving for omega, Initial residual = 4.37496e-09, Final residual = 3.4244e-11, No Iterations 1
ExecutionTime = 13.44 s  ClockTime = 15 s

Time = 331

DILUPBiCGStab:  Solving for omega, Initial residual = 4.23819e-09, Final residual = 3.32096e-11, No Iterations 1
ExecutionTime = 13.48 s  ClockTime = 15 s

Time = 332

DILUPBiCGStab:  Solving for omega, Initial residual = 4.10569e-09, Final residual = 3.22056e-11, No Iterations 1
ExecutionTime = 13.52 s  ClockTime = 15 s

Time = 333

DILUPBiCGStab:  Solving for omega, Initial residual = 3.97733e-09, Final residual = 3.12311e-11, No Iterations 1
ExecutionTime = 13.56 s  ClockTime = 15 s

Time = 334

DILUPBiCGStab:  Solving for omega, Initial residual = 3.85299e-09, Final residual = 3.02854e-11, No Iterations 1
ExecutionTime = 13.6 s  ClockTime = 15 s

Time = 335

DILUPBiCGStab:  Solving for omega, Initial residual = 3.73253e-09, Final residual = 2.93676e-11, No Iterations 1
ExecutionTime = 13.64 s  ClockTime = 15 s

Time = 336

DILUPBiCGStab:  Solving for omega, Initial residual = 3.61584e-09, Final residual = 2.84771e-11, No Iterations 1
ExecutionTime = 13.67 s  ClockTime = 15 s

Time = 337

DILUPBiCGStab:  Solving for omega, Initial residual = 3.5028e-09, Final residual = 2.76129e-11, No Iterations 1
ExecutionTime = 13.71 s  ClockTime = 15 s

Time = 338

DILUPBiCGStab:  Solving for omega, Initial residual = 3.3933e-09, Final residual = 2.67745e-11, No Iterations 1
ExecutionTime = 13.74 s  ClockTime = 15 s

Time = 339

DILUPBiCGStab:  Solving for omega, Initial residual = 3.28722e-09, Final residual = 2.5961e-11, No Iterations 1
ExecutionTime = 13.77 s  ClockTime = 15 s

Time = 340

DILUPBiCGStab:  Solving for omega, Initial residual = 3.18447e-09, Final residual = 2.51718e-11, No Iterations 1
ExecutionTime = 13.81 s  ClockTime = 16 s

Time = 341

DILUPBiCGStab:  Solving for omega, Initial residual = 3.08492e-09, Final residual = 2.44062e-11, No Iterations 1
ExecutionTime = 13.85 s  ClockTime = 16 s

Time = 342

DILUPBiCGStab:  Solving for omega, Initial residual = 2.98849e-09, Final residual = 2.36635e-11, No Iterations 1
ExecutionTime = 13.88 s  ClockTime = 16 s

Time = 343

DILUPBiCGStab:  Solving for omega, Initial residual = 2.89508e-09, Final residual = 2.2943e-11, No Iterations 1
ExecutionTime = 13.91 s  ClockTime = 16 s

Time = 344

DILUPBiCGStab:  Solving for omega, Initial residual = 2.80459e-09, Final residual = 2.22441e-11, No Iterations 1
ExecutionTime = 13.94 s  ClockTime = 16 s

Time = 345

DILUPBiCGStab:  Solving for omega, Initial residual = 2.71693e-09, Final residual = 2.15662e-11, No Iterations 1
ExecutionTime = 13.97 s  ClockTime = 16 s

Time = 346

DILUPBiCGStab:  Solving for omega, Initial residual = 2.63202e-09, Final residual = 2.09087e-11, No Iterations 1
ExecutionTime = 14 s  ClockTime = 16 s

Time = 347

DILUPBiCGStab:  Solving for omega, Initial residual = 2.54976e-09, Final residual = 2.02709e-11, No Iterations 1
ExecutionTime = 14.04 s  ClockTime = 16 s

Time = 348

DILUPBiCGStab:  Solving for omega, Initial residual = 2.47008e-09, Final residual = 1.96524e-11, No Iterations 1
ExecutionTime = 14.08 s  ClockTime = 16 s

Time = 349

DILUPBiCGStab:  Solving for omega, Initial residual = 2.39289e-09, Final residual = 1.90525e-11, No Iterations 1
ExecutionTime = 14.12 s  ClockTime = 16 s

Time = 350

DILUPBiCGStab:  Solving for omega, Initial residual = 2.31811e-09, Final residual = 1.84708e-11, No Iterations 1
ExecutionTime = 14.15 s  ClockTime = 16 s

Time = 351

DILUPBiCGStab:  Solving for omega, Initial residual = 2.24568e-09, Final residual = 1.79065e-11, No Iterations 1
ExecutionTime = 14.18 s  ClockTime = 16 s

Time = 352

DILUPBiCGStab:  Solving for omega, Initial residual = 2.17551e-09, Final residual = 1.73594e-11, No Iterations 1
ExecutionTime = 14.22 s  ClockTime = 16 s

Time = 353

DILUPBiCGStab:  Solving for omega, Initial residual = 2.10754e-09, Final residual = 1.68288e-11, No Iterations 1
ExecutionTime = 14.24 s  ClockTime = 16 s

Time = 354

DILUPBiCGStab:  Solving for omega, Initial residual = 2.0417e-09, Final residual = 1.63143e-11, No Iterations 1
ExecutionTime = 14.27 s  ClockTime = 16 s

Time = 355

DILUPBiCGStab:  Solving for omega, Initial residual = 1.97792e-09, Final residual = 1.58153e-11, No Iterations 1
ExecutionTime = 14.29 s  ClockTime = 16 s

Time = 356

DILUPBiCGStab:  Solving for omega, Initial residual = 1.91613e-09, Final residual = 1.53315e-11, No Iterations 1
ExecutionTime = 14.32 s  ClockTime = 16 s

Time = 357

DILUPBiCGStab:  Solving for omega, Initial residual = 1.85628e-09, Final residual = 1.48624e-11, No Iterations 1
ExecutionTime = 14.35 s  ClockTime = 16 s

Time = 358

DILUPBiCGStab:  Solving for omega, Initial residual = 1.7983e-09, Final residual = 1.44075e-11, No Iterations 1
ExecutionTime = 14.37 s  ClockTime = 16 s

Time = 359

DILUPBiCGStab:  Solving for omega, Initial residual = 1.74213e-09, Final residual = 9.84224e-11, No Iterations 1
ExecutionTime = 14.39 s  ClockTime = 16 s

Time = 360

DILUPBiCGStab:  Solving for omega, Initial residual = 1.68888e-09, Final residual = 9.60009e-11, No Iterations 1
ExecutionTime = 14.42 s  ClockTime = 16 s

Time = 361

DILUPBiCGStab:  Solving for omega, Initial residual = 1.63718e-09, Final residual = 9.36331e-11, No Iterations 1
ExecutionTime = 14.45 s  ClockTime = 16 s

Time = 362

DILUPBiCGStab:  Solving for omega, Initial residual = 1.58703e-09, Final residual = 9.12423e-11, No Iterations 1
ExecutionTime = 14.48 s  ClockTime = 16 s

Time = 363

DILUPBiCGStab:  Solving for omega, Initial residual = 1.53841e-09, Final residual = 8.89177e-11, No Iterations 1
ExecutionTime = 14.52 s  ClockTime = 16 s

Time = 364

DILUPBiCGStab:  Solving for omega, Initial residual = 1.49126e-09, Final residual = 8.66249e-11, No Iterations 1
ExecutionTime = 14.55 s  ClockTime = 16 s

Time = 365

DILUPBiCGStab:  Solving for omega, Initial residual = 1.44555e-09, Final residual = 8.43876e-11, No Iterations 1
ExecutionTime = 14.58 s  ClockTime = 16 s

Time = 366

DILUPBiCGStab:  Solving for omega, Initial residual = 1.40124e-09, Final residual = 8.21947e-11, No Iterations 1
ExecutionTime = 14.6 s  ClockTime = 17 s

Time = 367

DILUPBiCGStab:  Solving for omega, Initial residual = 1.35829e-09, Final residual = 8.00537e-11, No Iterations 1
ExecutionTime = 14.63 s  ClockTime = 17 s

Time = 368

DILUPBiCGStab:  Solving for omega, Initial residual = 1.31666e-09, Final residual = 7.79602e-11, No Iterations 1
ExecutionTime = 14.66 s  ClockTime = 17 s

Time = 369

DILUPBiCGStab:  Solving for omega, Initial residual = 1.27631e-09, Final residual = 7.59163e-11, No Iterations 1
ExecutionTime = 14.7 s  ClockTime = 17 s

Time = 370

DILUPBiCGStab:  Solving for omega, Initial residual = 1.2372e-09, Final residual = 7.39194e-11, No Iterations 1
ExecutionTime = 14.72 s  ClockTime = 17 s

Time = 371

DILUPBiCGStab:  Solving for omega, Initial residual = 1.19929e-09, Final residual = 7.19702e-11, No Iterations 1
ExecutionTime = 14.76 s  ClockTime = 17 s

Time = 372

DILUPBiCGStab:  Solving for omega, Initial residual = 1.16255e-09, Final residual = 7.00672e-11, No Iterations 1
ExecutionTime = 14.79 s  ClockTime = 17 s

Time = 373

DILUPBiCGStab:  Solving for omega, Initial residual = 1.12694e-09, Final residual = 6.82103e-11, No Iterations 1
ExecutionTime = 14.82 s  ClockTime = 17 s

Time = 374

DILUPBiCGStab:  Solving for omega, Initial residual = 1.09243e-09, Final residual = 6.63983e-11, No Iterations 1
ExecutionTime = 14.85 s  ClockTime = 17 s

Time = 375

DILUPBiCGStab:  Solving for omega, Initial residual = 1.05898e-09, Final residual = 6.46307e-11, No Iterations 1
ExecutionTime = 14.88 s  ClockTime = 17 s

Time = 376

DILUPBiCGStab:  Solving for omega, Initial residual = 1.02656e-09, Final residual = 6.29067e-11, No Iterations 1
ExecutionTime = 14.91 s  ClockTime = 17 s

Time = 377

DILUPBiCGStab:  Solving for omega, Initial residual = 9.95142e-10, Final residual = 6.12252e-11, No Iterations 1
ExecutionTime = 14.93 s  ClockTime = 17 s

Time = 378

DILUPBiCGStab:  Solving for omega, Initial residual = 9.64691e-10, Final residual = 5.95855e-11, No Iterations 1
ExecutionTime = 14.96 s  ClockTime = 17 s

Time = 379

DILUPBiCGStab:  Solving for omega, Initial residual = 9.35179e-10, Final residual = 5.7987e-11, No Iterations 1
ExecutionTime = 14.98 s  ClockTime = 17 s

Time = 380

DILUPBiCGStab:  Solving for omega, Initial residual = 9.06576e-10, Final residual = 5.64289e-11, No Iterations 1
ExecutionTime = 15.01 s  ClockTime = 17 s

Time = 381

DILUPBiCGStab:  Solving for omega, Initial residual = 8.78854e-10, Final residual = 5.49103e-11, No Iterations 1
ExecutionTime = 15.04 s  ClockTime = 17 s

Time = 382

DILUPBiCGStab:  Solving for omega, Initial residual = 8.51987e-10, Final residual = 5.34301e-11, No Iterations 1
ExecutionTime = 15.07 s  ClockTime = 17 s

Time = 383

DILUPBiCGStab:  Solving for omega, Initial residual = 8.25946e-10, Final residual = 5.19874e-11, No Iterations 1
ExecutionTime = 15.1 s  ClockTime = 17 s

Time = 384

DILUPBiCGStab:  Solving for omega, Initial residual = 8.00708e-10, Final residual = 5.05814e-11, No Iterations 1
ExecutionTime = 15.12 s  ClockTime = 17 s

Time = 385

DILUPBiCGStab:  Solving for omega, Initial residual = 7.76247e-10, Final residual = 4.92112e-11, No Iterations 1
ExecutionTime = 15.14 s  ClockTime = 17 s

Time = 386

DILUPBiCGStab:  Solving for omega, Initial residual = 7.52539e-10, Final residual = 4.78762e-11, No Iterations 1
ExecutionTime = 15.17 s  ClockTime = 17 s

Time = 387

DILUPBiCGStab:  Solving for omega, Initial residual = 7.2956e-10, Final residual = 4.65756e-11, No Iterations 1
ExecutionTime = 15.27 s  ClockTime = 17 s

Time = 388

DILUPBiCGStab:  Solving for omega, Initial residual = 7.07289e-10, Final residual = 4.53085e-11, No Iterations 1
ExecutionTime = 15.29 s  ClockTime = 17 s

Time = 389

DILUPBiCGStab:  Solving for omega, Initial residual = 6.85703e-10, Final residual = 4.40743e-11, No Iterations 1
ExecutionTime = 15.33 s  ClockTime = 18 s

Time = 390

DILUPBiCGStab:  Solving for omega, Initial residual = 6.6478e-10, Final residual = 4.28721e-11, No Iterations 1
ExecutionTime = 15.37 s  ClockTime = 18 s

Time = 391

DILUPBiCGStab:  Solving for omega, Initial residual = 6.44501e-10, Final residual = 4.17013e-11, No Iterations 1
ExecutionTime = 15.4 s  ClockTime = 18 s

Time = 392

DILUPBiCGStab:  Solving for omega, Initial residual = 6.24846e-10, Final residual = 4.05613e-11, No Iterations 1
ExecutionTime = 15.45 s  ClockTime = 18 s

Time = 393

DILUPBiCGStab:  Solving for omega, Initial residual = 6.05794e-10, Final residual = 3.94511e-11, No Iterations 1
ExecutionTime = 15.48 s  ClockTime = 18 s

Time = 394

DILUPBiCGStab:  Solving for omega, Initial residual = 5.87328e-10, Final residual = 3.837e-11, No Iterations 1
ExecutionTime = 15.51 s  ClockTime = 18 s

Time = 395

DILUPBiCGStab:  Solving for omega, Initial residual = 5.69429e-10, Final residual = 3.73173e-11, No Iterations 1
ExecutionTime = 15.53 s  ClockTime = 18 s

Time = 396

DILUPBiCGStab:  Solving for omega, Initial residual = 5.52079e-10, Final residual = 3.62924e-11, No Iterations 1
ExecutionTime = 15.55 s  ClockTime = 18 s

Time = 397

DILUPBiCGStab:  Solving for omega, Initial residual = 5.35263e-10, Final residual = 3.52946e-11, No Iterations 1
ExecutionTime = 15.58 s  ClockTime = 18 s

Time = 398

DILUPBiCGStab:  Solving for omega, Initial residual = 5.18962e-10, Final residual = 3.43232e-11, No Iterations 1
ExecutionTime = 15.6 s  ClockTime = 18 s

Time = 399

DILUPBiCGStab:  Solving for omega, Initial residual = 5.03162e-10, Final residual = 3.33776e-11, No Iterations 1
ExecutionTime = 15.62 s  ClockTime = 18 s

Time = 400

DILUPBiCGStab:  Solving for omega, Initial residual = 4.87846e-10, Final residual = 3.24572e-11, No Iterations 1
ExecutionTime = 15.65 s  ClockTime = 18 s

Time = 401

DILUPBiCGStab:  Solving for omega, Initial residual = 4.73e-10, Final residual = 3.15615e-11, No Iterations 1
ExecutionTime = 15.67 s  ClockTime = 18 s

Time = 402

DILUPBiCGStab:  Solving for omega, Initial residual = 4.58609e-10, Final residual = 3.06897e-11, No Iterations 1
ExecutionTime = 15.7 s  ClockTime = 18 s

Time = 403

DILUPBiCGStab:  Solving for omega, Initial residual = 4.44659e-10, Final residual = 2.98413e-11, No Iterations 1
ExecutionTime = 15.73 s  ClockTime = 18 s

Time = 404

DILUPBiCGStab:  Solving for omega, Initial residual = 4.31137e-10, Final residual = 2.90158e-11, No Iterations 1
ExecutionTime = 15.76 s  ClockTime = 18 s

Time = 405

DILUPBiCGStab:  Solving for omega, Initial residual = 4.18029e-10, Final residual = 2.82125e-11, No Iterations 1
ExecutionTime = 15.78 s  ClockTime = 18 s

Time = 406

DILUPBiCGStab:  Solving for omega, Initial residual = 4.05322e-10, Final residual = 2.74307e-11, No Iterations 1
ExecutionTime = 15.81 s  ClockTime = 18 s

Time = 407

DILUPBiCGStab:  Solving for omega, Initial residual = 3.93004e-10, Final residual = 2.66701e-11, No Iterations 1
ExecutionTime = 15.83 s  ClockTime = 18 s

Time = 408

DILUPBiCGStab:  Solving for omega, Initial residual = 3.81063e-10, Final residual = 2.593e-11, No Iterations 1
ExecutionTime = 15.85 s  ClockTime = 18 s

Time = 409

DILUPBiCGStab:  Solving for omega, Initial residual = 3.69488e-10, Final residual = 2.52098e-11, No Iterations 1
ExecutionTime = 15.88 s  ClockTime = 18 s

Time = 410

DILUPBiCGStab:  Solving for omega, Initial residual = 3.58267e-10, Final residual = 2.45092e-11, No Iterations 1
ExecutionTime = 15.9 s  ClockTime = 18 s

Time = 411

DILUPBiCGStab:  Solving for omega, Initial residual = 3.47388e-10, Final residual = 2.38275e-11, No Iterations 1
ExecutionTime = 15.93 s  ClockTime = 18 s

Time = 412

DILUPBiCGStab:  Solving for omega, Initial residual = 3.36843e-10, Final residual = 2.31645e-11, No Iterations 1
ExecutionTime = 15.95 s  ClockTime = 18 s

Time = 413

DILUPBiCGStab:  Solving for omega, Initial residual = 3.2662e-10, Final residual = 2.25194e-11, No Iterations 1
ExecutionTime = 15.99 s  ClockTime = 18 s

Time = 414

DILUPBiCGStab:  Solving for omega, Initial residual = 3.16709e-10, Final residual = 2.18919e-11, No Iterations 1
ExecutionTime = 16.01 s  ClockTime = 18 s

Time = 415

DILUPBiCGStab:  Solving for omega, Initial residual = 3.07101e-10, Final residual = 2.12815e-11, No Iterations 1
ExecutionTime = 16.04 s  ClockTime = 19 s

Time = 416

DILUPBiCGStab:  Solving for omega, Initial residual = 2.97786e-10, Final residual = 2.06878e-11, No Iterations 1
ExecutionTime = 16.06 s  ClockTime = 19 s

Time = 417

DILUPBiCGStab:  Solving for omega, Initial residual = 2.88756e-10, Final residual = 2.01103e-11, No Iterations 1
ExecutionTime = 16.09 s  ClockTime = 19 s

Time = 418

DILUPBiCGStab:  Solving for omega, Initial residual = 2.80002e-10, Final residual = 1.95486e-11, No Iterations 1
ExecutionTime = 16.12 s  ClockTime = 19 s

Time = 419

DILUPBiCGStab:  Solving for omega, Initial residual = 2.71515e-10, Final residual = 1.90022e-11, No Iterations 1
ExecutionTime = 16.14 s  ClockTime = 19 s

Time = 420

DILUPBiCGStab:  Solving for omega, Initial residual = 2.63286e-10, Final residual = 1.84709e-11, No Iterations 1
ExecutionTime = 16.16 s  ClockTime = 19 s

Time = 421

DILUPBiCGStab:  Solving for omega, Initial residual = 2.55309e-10, Final residual = 1.79543e-11, No Iterations 1
ExecutionTime = 16.19 s  ClockTime = 19 s

Time = 422

DILUPBiCGStab:  Solving for omega, Initial residual = 2.47575e-10, Final residual = 1.74518e-11, No Iterations 1
ExecutionTime = 16.22 s  ClockTime = 19 s

Time = 423

DILUPBiCGStab:  Solving for omega, Initial residual = 2.40076e-10, Final residual = 1.69632e-11, No Iterations 1
ExecutionTime = 16.26 s  ClockTime = 19 s

Time = 424

DILUPBiCGStab:  Solving for omega, Initial residual = 2.32807e-10, Final residual = 1.6488e-11, No Iterations 1
ExecutionTime = 16.29 s  ClockTime = 19 s

Time = 425

DILUPBiCGStab:  Solving for omega, Initial residual = 2.25759e-10, Final residual = 1.60259e-11, No Iterations 1
ExecutionTime = 16.32 s  ClockTime = 19 s

Time = 426

DILUPBiCGStab:  Solving for omega, Initial residual = 2.18925e-10, Final residual = 1.55766e-11, No Iterations 1
ExecutionTime = 16.35 s  ClockTime = 19 s

Time = 427

DILUPBiCGStab:  Solving for omega, Initial residual = 2.123e-10, Final residual = 1.51397e-11, No Iterations 1
ExecutionTime = 16.38 s  ClockTime = 19 s

Time = 428

DILUPBiCGStab:  Solving for omega, Initial residual = 2.05876e-10, Final residual = 1.47149e-11, No Iterations 1
ExecutionTime = 16.42 s  ClockTime = 19 s

Time = 429

DILUPBiCGStab:  Solving for omega, Initial residual = 1.99648e-10, Final residual = 1.43019e-11, No Iterations 1
ExecutionTime = 16.45 s  ClockTime = 19 s

Time = 430

DILUPBiCGStab:  Solving for omega, Initial residual = 1.9361e-10, Final residual = 1.39003e-11, No Iterations 1
ExecutionTime = 16.48 s  ClockTime = 19 s

Time = 431

DILUPBiCGStab:  Solving for omega, Initial residual = 1.87755e-10, Final residual = 1.35098e-11, No Iterations 1
ExecutionTime = 16.52 s  ClockTime = 19 s

Time = 432

DILUPBiCGStab:  Solving for omega, Initial residual = 1.82079e-10, Final residual = 1.31303e-11, No Iterations 1
ExecutionTime = 16.55 s  ClockTime = 19 s

Time = 433

DILUPBiCGStab:  Solving for omega, Initial residual = 1.76575e-10, Final residual = 1.27612e-11, No Iterations 1
ExecutionTime = 16.57 s  ClockTime = 19 s

Time = 434

DILUPBiCGStab:  Solving for omega, Initial residual = 1.71238e-10, Final residual = 1.24024e-11, No Iterations 1
ExecutionTime = 16.6 s  ClockTime = 19 s

Time = 435

DILUPBiCGStab:  Solving for omega, Initial residual = 1.66064e-10, Final residual = 1.20536e-11, No Iterations 1
ExecutionTime = 16.64 s  ClockTime = 19 s

Time = 436

DILUPBiCGStab:  Solving for omega, Initial residual = 1.61047e-10, Final residual = 1.17145e-11, No Iterations 1
ExecutionTime = 16.67 s  ClockTime = 19 s

Time = 437

DILUPBiCGStab:  Solving for omega, Initial residual = 1.56182e-10, Final residual = 1.13848e-11, No Iterations 1
ExecutionTime = 16.69 s  ClockTime = 19 s

Time = 438

DILUPBiCGStab:  Solving for omega, Initial residual = 1.51466e-10, Final residual = 1.10643e-11, No Iterations 1
ExecutionTime = 16.72 s  ClockTime = 19 s

Time = 439

DILUPBiCGStab:  Solving for omega, Initial residual = 1.46892e-10, Final residual = 1.07528e-11, No Iterations 1
ExecutionTime = 16.74 s  ClockTime = 19 s

Time = 440

DILUPBiCGStab:  Solving for omega, Initial residual = 1.42458e-10, Final residual = 1.04499e-11, No Iterations 1
ExecutionTime = 16.76 s  ClockTime = 19 s

Time = 441

DILUPBiCGStab:  Solving for omega, Initial residual = 1.38158e-10, Final residual = 1.01555e-11, No Iterations 1
ExecutionTime = 16.79 s  ClockTime = 20 s

Time = 442

DILUPBiCGStab:  Solving for omega, Initial residual = 1.33989e-10, Final residual = 9.86926e-12, No Iterations 1
ExecutionTime = 16.82 s  ClockTime = 20 s

Time = 443

DILUPBiCGStab:  Solving for omega, Initial residual = 1.29946e-10, Final residual = 9.59105e-12, No Iterations 1
ExecutionTime = 16.84 s  ClockTime = 20 s

Time = 444

DILUPBiCGStab:  Solving for omega, Initial residual = 1.26026e-10, Final residual = 9.32062e-12, No Iterations 1
ExecutionTime = 16.87 s  ClockTime = 20 s

Time = 445

DILUPBiCGStab:  Solving for omega, Initial residual = 1.22225e-10, Final residual = 9.05776e-12, No Iterations 1
ExecutionTime = 16.89 s  ClockTime = 20 s

Time = 446

DILUPBiCGStab:  Solving for omega, Initial residual = 1.18539e-10, Final residual = 8.80224e-12, No Iterations 1
ExecutionTime = 16.92 s  ClockTime = 20 s

Time = 447

DILUPBiCGStab:  Solving for omega, Initial residual = 1.14965e-10, Final residual = 8.55388e-12, No Iterations 1
ExecutionTime = 16.96 s  ClockTime = 20 s

Time = 448

DILUPBiCGStab:  Solving for omega, Initial residual = 1.11499e-10, Final residual = 8.31248e-12, No Iterations 1
ExecutionTime = 16.99 s  ClockTime = 20 s

Time = 449

DILUPBiCGStab:  Solving for omega, Initial residual = 1.08138e-10, Final residual = 8.07785e-12, No Iterations 1
ExecutionTime = 17.02 s  ClockTime = 20 s

Time = 450

DILUPBiCGStab:  Solving for omega, Initial residual = 1.0488e-10, Final residual = 7.8498e-12, No Iterations 1
ExecutionTime = 17.05 s  ClockTime = 20 s

Time = 451

DILUPBiCGStab:  Solving for omega, Initial residual = 1.0172e-10, Final residual = 7.62813e-12, No Iterations 1
ExecutionTime = 17.08 s  ClockTime = 20 s

Time = 452

DILUPBiCGStab:  Solving for omega, Initial residual = 9.86553e-11, Final residual = 9.86553e-11, No Iterations 0
ExecutionTime = 17.12 s  ClockTime = 20 s

Time = 453

DILUPBiCGStab:  Solving for omega, Initial residual = 9.86553e-11, Final residual = 9.86553e-11, No Iterations 0
ExecutionTime = 17.15 s  ClockTime = 20 s

Time = 454

DILUPBiCGStab:  Solving for omega, Initial residual = 9.86553e-11, Final residual = 9.86553e-11, No Iterations 0
ExecutionTime = 17.17 s  ClockTime = 20 s

Time = 455

DILUPBiCGStab:  Solving for omega, Initial residual = 9.86553e-11, Final residual = 9.86553e-11, No Iterations 0
ExecutionTime = 17.19 s  ClockTime = 20 s

Time = 456

DILUPBiCGStab:  Solving for omega, Initial residual = 9.86553e-11, Final residual = 9.86553e-11, No Iterations 0
ExecutionTime = 17.21 s  ClockTime = 20 s

Time = 457

DILUPBiCGStab:  Solving for omega, Initial residual = 9.86553e-11, Final residual = 9.86553e-11, No Iterations 0
ExecutionTime = 17.24 s  ClockTime = 20 s

Time = 458

DILUPBiCGStab:  Solving for omega, Initial residual = 9.86553e-11, Final residual = 9.86553e-11, No Iterations 0
ExecutionTime = 17.26 s  ClockTime = 20 s

Time = 459

DILUPBiCGStab:  Solving for omega, Initial residual = 9.86553e-11, Final residual = 9.86553e-11, No Iterations 0
ExecutionTime = 17.29 s  ClockTime = 20 s

Time = 460

DILUPBiCGStab:  Solving for omega, Initial residual = 9.86553e-11, Final residual = 9.86553e-11, No Iterations 0
ExecutionTime = 17.32 s  ClockTime = 20 s

Time = 461

DILUPBiCGStab:  Solving for omega, Initial residual = 9.86553e-11, Final residual = 9.86553e-11, No Iterations 0
ExecutionTime = 17.34 s  ClockTime = 20 s

Time = 462

DILUPBiCGStab:  Solving for omega, Initial residual = 9.86553e-11, Final residual = 9.86553e-11, No Iterations 0
ExecutionTime = 17.37 s  ClockTime = 20 s

Time = 463

DILUPBiCGStab:  Solving for omega, Initial residual = 9.86553e-11, Final residual = 9.86553e-11, No Iterations 0
ExecutionTime = 17.39 s  ClockTime = 20 s

Time = 464

DILUPBiCGStab:  Solving for omega, Initial residual = 9.86553e-11, Final residual = 9.86553e-11, No Iterations 0
ExecutionTime = 17.41 s  ClockTime = 20 s

Time = 465

[...]

Time = 5885

DILUPBiCGStab:  Solving for omega, Initial residual = 9.86553e-11, Final residual = 9.86553e-11, No Iterations 0
ExecutionTime = 202.57 s  ClockTime = 237 s

Time = 5886

DILUPBiCGStab:  Solving for omega, Initial residual = 9.86553e-11, Final residual = 9.86553e-11, No Iterations 0
ExecutionTime = 202.6 s  ClockTime = 237 s

Time = 5887

DILUPBiCGStab:  Solving for omega, Initial residual = 9.86553e-11, Final residual = 9.86553e-11, No Iterations 0
ExecutionTime = 202.63 s  ClockTime = 237 s

Time = 5888

DILUPBiCGStab:  Solving for omega, Initial residual = 9.86553e-11, Final residual = 9.86553e-11, No Iterations 0
ExecutionTime = 202.66 s  ClockTime = 237 s

Time = 5889

DILUPBiCGStab:  Solving for omega, Initial residual = 9.86553e-11, Final residual = 9.86553e-11, No Iterations 0
ExecutionTime = 202.69 s  ClockTime = 237 s

Time = 5890

DILUPBiCGStab:  Solving for omega, Initial residual = 9.86553e-11, Final residual = 9.86553e-11, No Iterations 0
ExecutionTime = 202.73 s  ClockTime = 237 s

Time = 5891

DILUPBiCGStab:  Solving for omega, Initial residual = 9.86553e-11, Final residual = 9.86553e-11, No Iterations 0
ExecutionTime = 202.76 s  ClockTime = 237 s

Time = 5892

DILUPBiCGStab:  Solving for omega, Initial residual = 9.86553e-11, Final residual = 9.86553e-11, No Iterations 0
ExecutionTime = 202.79 s  ClockTime = 237 s

Time = 5893

DILUPBiCGStab:  Solving for omega, Initial residual = 9.86553e-11, Final residual = 9.86553e-11, No Iterations 0
ExecutionTime = 202.82 s  ClockTime = 237 s

Time = 5894

DILUPBiCGStab:  Solving for omega, Initial residual = 9.86553e-11, Final residual = 9.86553e-11, No Iterations 0
ExecutionTime = 202.85 s  ClockTime = 237 s

Time = 5895

DILUPBiCGStab:  Solving for omega, Initial residual = 9.86553e-11, Final residual = 9.86553e-11, No Iterations 0
ExecutionTime = 202.89 s  ClockTime = 237 s

Time = 5896

DILUPBiCGStab:  Solving for omega, Initial residual = 9.86553e-11, Final residual = 9.86553e-11, No Iterations 0
ExecutionTime = 202.92 s  ClockTime = 237 s

Time = 5897

DILUPBiCGStab:  Solving for omega, Initial residual = 9.86553e-11, Final residual = 9.86553e-11, No Iterations 0
ExecutionTime = 202.96 s  ClockTime = 237 s

Time = 5898

DILUPBiCGStab:  Solving for omega, Initial residual = 9.86553e-11, Final residual = 9.86553e-11, No Iterations 0
ExecutionTime = 202.99 s  ClockTime = 237 s

Time = 5899

DILUPBiCGStab:  Solving for omega, Initial residual = 9.86553e-11, Final residual = 9.86553e-11, No Iterations 0
ExecutionTime = 203.02 s  ClockTime = 237 s

Time = 5900

DILUPBiCGStab:  Solving for omega, Initial residual = 9.86553e-11, Final residual = 9.86553e-11, No Iterations 0
ExecutionTime = 203.05 s  ClockTime = 237 s

Time = 5901

DILUPBiCGStab:  Solving for omega, Initial residual = 9.86553e-11, Final residual = 9.86553e-11, No Iterations 0
ExecutionTime = 203.07 s  ClockTime = 237 s

Time = 5902

DILUPBiCGStab:  Solving for omega, Initial residual = 9.86553e-11, Final residual = 9.86553e-11, No Iterations 0
ExecutionTime = 203.11 s  ClockTime = 237 s

Time = 5903

DILUPBiCGStab:  Solving for omega, Initial residual = 9.86553e-11, Final residual = 9.86553e-11, No Iterations 0
ExecutionTime = 203.14 s  ClockTime = 237 s

Time = 5904

DILUPBiCGStab:  Solving for omega, Initial residual = 9.86553e-11, Final residual = 9.86553e-11, No Iterations 0
ExecutionTime = 203.17 s  ClockTime = 237 s

Time = 5905

DILUPBiCGStab:  Solving for omega, Initial residual = 9.86553e-11, Final residual = 9.86553e-11, No Iterations 0
ExecutionTime = 203.21 s  ClockTime = 237 s

Time = 5906

DILUPBiCGStab:  Solving for omega, Initial residual = 9.86553e-11, Final residual = 9.86553e-11, No Iterations 0
ExecutionTime = 203.24 s  ClockTime = 237 s

Time = 5907

DILUPBiCGStab:  Solving for omega, Initial residual = 9.86553e-11, Final residual = 9.86553e-11, No Iterations 0
ExecutionTime = 203.27 s  ClockTime = 238 s

Time = 5908

DILUPBiCGStab:  Solving for omega, Initial residual = 9.86553e-11, Final residual = 9.86553e-11, No Iterations 0
ExecutionTime = 203.31 s  ClockTime = 238 s

Time = 5909

DILUPBiCGStab:  Solving for omega, Initial residual = 9.86553e-11, Final residual = 9.86553e-11, No Iterations 0
ExecutionTime = 203.35 s  ClockTime = 238 s

Time = 5910

DILUPBiCGStab:  Solving for omega, Initial residual = 9.86553e-11, Final residual = 9.86553e-11, No Iterations 0
ExecutionTime = 203.39 s  ClockTime = 238 s

Time = 5911

DILUPBiCGStab:  Solving for omega, Initial residual = 9.86553e-11, Final residual = 9.86553e-11, No Iterations 0
ExecutionTime = 203.42 s  ClockTime = 238 s

Time = 5912

DILUPBiCGStab:  Solving for omega, Initial residual = 9.86553e-11, Final residual = 9.86553e-11, No Iterations 0
ExecutionTime = 203.45 s  ClockTime = 238 s

Time = 5913

DILUPBiCGStab:  Solving for omega, Initial residual = 9.86553e-11, Final residual = 9.86553e-11, No Iterations 0
ExecutionTime = 203.48 s  ClockTime = 238 s

Time = 5914

DILUPBiCGStab:  Solving for omega, Initial residual = 9.86553e-11, Final residual = 9.86553e-11, No Iterations 0
ExecutionTime = 203.57 s  ClockTime = 238 s

Time = 5915

DILUPBiCGStab:  Solving for omega, Initial residual = 9.86553e-11, Final residual = 9.86553e-11, No Iterations 0
ExecutionTime = 203.65 s  ClockTime = 238 s

Time = 5916

DILUPBiCGStab:  Solving for omega, Initial residual = 9.86553e-11, Final residual = 9.86553e-11, No Iterations 0
ExecutionTime = 203.71 s  ClockTime = 238 s

Time = 5917

DILUPBiCGStab:  Solving for omega, Initial residual = 9.86553e-11, Final residual = 9.86553e-11, No Iterations 0
ExecutionTime = 203.76 s  ClockTime = 238 s

Time = 5918

DILUPBiCGStab:  Solving for omega, Initial residual = 9.86553e-11, Final residual = 9.86553e-11, No Iterations 0
ExecutionTime = 203.8 s  ClockTime = 238 s

Time = 5919

DILUPBiCGStab:  Solving for omega, Initial residual = 9.86553e-11, Final residual = 9.86553e-11, No Iterations 0
ExecutionTime = 203.84 s  ClockTime = 238 s

Time = 5920

DILUPBiCGStab:  Solving for omega, Initial residual = 9.86553e-11, Final residual = 9.86553e-11, No Iterations 0
ExecutionTime = 203.87 s  ClockTime = 238 s

Time = 5921

DILUPBiCGStab:  Solving for omega, Initial residual = 9.86553e-11, Final residual = 9.86553e-11, No Iterations 0
ExecutionTime = 203.9 s  ClockTime = 238 s

Time = 5922

DILUPBiCGStab:  Solving for omega, Initial residual = 9.86553e-11, Final residual = 9.86553e-11, No Iterations 0
ExecutionTime = 203.93 s  ClockTime = 238 s

Time = 5923

DILUPBiCGStab:  Solving for omega, Initial residual = 9.86553e-11, Final residual = 9.86553e-11, No Iterations 0
ExecutionTime = 203.97 s  ClockTime = 238 s

Time = 5924

DILUPBiCGStab:  Solving for omega, Initial residual = 9.86553e-11, Final residual = 9.86553e-11, No Iterations 0
ExecutionTime = 204 s  ClockTime = 238 s

Time = 5925

DILUPBiCGStab:  Solving for omega, Initial residual = 9.86553e-11, Final residual = 9.86553e-11, No Iterations 0
ExecutionTime = 204.04 s  ClockTime = 238 s

Time = 5926

DILUPBiCGStab:  Solving for omega, Initial residual = 9.86553e-11, Final residual = 9.86553e-11, No Iterations 0
ExecutionTime = 204.07 s  ClockTime = 238 s

Time = 5927

DILUPBiCGStab:  Solving for omega, Initial residual = 9.86553e-11, Final residual = 9.86553e-11, No Iterations 0
ExecutionTime = 204.12 s  ClockTime = 238 s

Time = 5928

DILUPBiCGStab:  Solving for omega, Initial residual = 9.86553e-11, Final residual = 9.86553e-11, No Iterations 0
ExecutionTime = 204.15 s  ClockTime = 239 s

Time = 5929

DILUPBiCGStab:  Solving for omega, Initial residual = 9.86553e-11, Final residual = 9.86553e-11, No Iterations 0
ExecutionTime = 204.19 s  ClockTime = 239 s

Time = 5930

DILUPBiCGStab:  Solving for omega, Initial residual = 9.86553e-11, Final residual = 9.86553e-11, No Iterations 0
ExecutionTime = 204.24 s  ClockTime = 239 s

Time = 5931

DILUPBiCGStab:  Solving for omega, Initial residual = 9.86553e-11, Final residual = 9.86553e-11, No Iterations 0
ExecutionTime = 204.28 s  ClockTime = 239 s

Time = 5932

DILUPBiCGStab:  Solving for omega, Initial residual = 9.86553e-11, Final residual = 9.86553e-11, No Iterations 0
ExecutionTime = 204.3 s  ClockTime = 239 s

Time = 5933

DILUPBiCGStab:  Solving for omega, Initial residual = 9.86553e-11, Final residual = 9.86553e-11, No Iterations 0
ExecutionTime = 204.33 s  ClockTime = 239 s

Time = 5934

DILUPBiCGStab:  Solving for omega, Initial residual = 9.86553e-11, Final residual = 9.86553e-11, No Iterations 0
ExecutionTime = 204.35 s  ClockTime = 239 s

Time = 5935

DILUPBiCGStab:  Solving for omega, Initial residual = 9.86553e-11, Final residual = 9.86553e-11, No Iterations 0
ExecutionTime = 204.38 s  ClockTime = 239 s

Time = 5936

DILUPBiCGStab:  Solving for omega, Initial residual = 9.86553e-11, Final residual = 9.86553e-11, No Iterations 0
ExecutionTime = 204.41 s  ClockTime = 239 s

Time = 5937

DILUPBiCGStab:  Solving for omega, Initial residual = 9.86553e-11, Final residual = 9.86553e-11, No Iterations 0
ExecutionTime = 204.43 s  ClockTime = 239 s

Time = 5938

DILUPBiCGStab:  Solving for omega, Initial residual = 9.86553e-11, Final residual = 9.86553e-11, No Iterations 0
ExecutionTime = 204.45 s  ClockTime = 239 s

Time = 5939

DILUPBiCGStab:  Solving for omega, Initial residual = 9.86553e-11, Final residual = 9.86553e-11, No Iterations 0
ExecutionTime = 204.47 s  ClockTime = 239 s

Time = 5940

DILUPBiCGStab:  Solving for omega, Initial residual = 9.86553e-11, Final residual = 9.86553e-11, No Iterations 0
ExecutionTime = 204.5 s  ClockTime = 239 s

Time = 5941

DILUPBiCGStab:  Solving for omega, Initial residual = 9.86553e-11, Final residual = 9.86553e-11, No Iterations 0
ExecutionTime = 204.53 s  ClockTime = 239 s

Time = 5942

DILUPBiCGStab:  Solving for omega, Initial residual = 9.86553e-11, Final residual = 9.86553e-11, No Iterations 0
ExecutionTime = 204.55 s  ClockTime = 239 s

Time = 5943

DILUPBiCGStab:  Solving for omega, Initial residual = 9.86553e-11, Final residual = 9.86553e-11, No Iterations 0
ExecutionTime = 204.57 s  ClockTime = 239 s

Time = 5944

DILUPBiCGStab:  Solving for omega, Initial residual = 9.86553e-11, Final residual = 9.86553e-11, No Iterations 0
ExecutionTime = 204.6 s  ClockTime = 239 s

Time = 5945

DILUPBiCGStab:  Solving for omega, Initial residual = 9.86553e-11, Final residual = 9.86553e-11, No Iterations 0
ExecutionTime = 204.63 s  ClockTime = 239 s

Time = 5946

DILUPBiCGStab:  Solving for omega, Initial residual = 9.86553e-11, Final residual = 9.86553e-11, No Iterations 0
ExecutionTime = 204.65 s  ClockTime = 239 s

Time = 5947

DILUPBiCGStab:  Solving for omega, Initial residual = 9.86553e-11, Final residual = 9.86553e-11, No Iterations 0
ExecutionTime = 204.68 s  ClockTime = 239 s

Time = 5948

DILUPBiCGStab:  Solving for omega, Initial residual = 9.86553e-11, Final residual = 9.86553e-11, No Iterations 0
ExecutionTime = 204.7 s  ClockTime = 239 s

Time = 5949

DILUPBiCGStab:  Solving for omega, Initial residual = 9.86553e-11, Final residual = 9.86553e-11, No Iterations 0
ExecutionTime = 204.73 s  ClockTime = 239 s

Time = 5950

DILUPBiCGStab:  Solving for omega, Initial residual = 9.86553e-11, Final residual = 9.86553e-11, No Iterations 0
ExecutionTime = 204.75 s  ClockTime = 239 s

Time = 5951

DILUPBiCGStab:  Solving for omega, Initial residual = 9.86553e-11, Final residual = 9.86553e-11, No Iterations 0
ExecutionTime = 204.79 s  ClockTime = 239 s

Time = 5952

DILUPBiCGStab:  Solving for omega, Initial residual = 9.86553e-11, Final residual = 9.86553e-11, No Iterations 0
ExecutionTime = 204.82 s  ClockTime = 239 s

Time = 5953

DILUPBiCGStab:  Solving for omega, Initial residual = 9.86553e-11, Final residual = 9.86553e-11, No Iterations 0
ExecutionTime = 204.85 s  ClockTime = 239 s

Time = 5954

DILUPBiCGStab:  Solving for omega, Initial residual = 9.86553e-11, Final residual = 9.86553e-11, No Iterations 0
ExecutionTime = 204.89 s  ClockTime = 239 s

Time = 5955

DILUPBiCGStab:  Solving for omega, Initial residual = 9.86553e-11, Final residual = 9.86553e-11, No Iterations 0
ExecutionTime = 204.93 s  ClockTime = 239 s

Time = 5956

DILUPBiCGStab:  Solving for omega, Initial residual = 9.86553e-11, Final residual = 9.86553e-11, No Iterations 0
ExecutionTime = 205 s  ClockTime = 239 s

Time = 5957

DILUPBiCGStab:  Solving for omega, Initial residual = 9.86553e-11, Final residual = 9.86553e-11, No Iterations 0
ExecutionTime = 205.05 s  ClockTime = 240 s

Time = 5958

DILUPBiCGStab:  Solving for omega, Initial residual = 9.86553e-11, Final residual = 9.86553e-11, No Iterations 0
ExecutionTime = 205.1 s  ClockTime = 240 s

Time = 5959

DILUPBiCGStab:  Solving for omega, Initial residual = 9.86553e-11, Final residual = 9.86553e-11, No Iterations 0
ExecutionTime = 205.13 s  ClockTime = 240 s

Time = 5960

DILUPBiCGStab:  Solving for omega, Initial residual = 9.86553e-11, Final residual = 9.86553e-11, No Iterations 0
ExecutionTime = 205.16 s  ClockTime = 240 s

Time = 5961

DILUPBiCGStab:  Solving for omega, Initial residual = 9.86553e-11, Final residual = 9.86553e-11, No Iterations 0
ExecutionTime = 205.18 s  ClockTime = 240 s

Time = 5962

DILUPBiCGStab:  Solving for omega, Initial residual = 9.86553e-11, Final residual = 9.86553e-11, No Iterations 0
ExecutionTime = 205.21 s  ClockTime = 240 s

Time = 5963

DILUPBiCGStab:  Solving for omega, Initial residual = 9.86553e-11, Final residual = 9.86553e-11, No Iterations 0
ExecutionTime = 205.23 s  ClockTime = 240 s

Time = 5964

DILUPBiCGStab:  Solving for omega, Initial residual = 9.86553e-11, Final residual = 9.86553e-11, No Iterations 0
ExecutionTime = 205.26 s  ClockTime = 240 s

Time = 5965

DILUPBiCGStab:  Solving for omega, Initial residual = 9.86553e-11, Final residual = 9.86553e-11, No Iterations 0
ExecutionTime = 205.3 s  ClockTime = 240 s

Time = 5966

DILUPBiCGStab:  Solving for omega, Initial residual = 9.86553e-11, Final residual = 9.86553e-11, No Iterations 0
ExecutionTime = 205.33 s  ClockTime = 240 s

Time = 5967

DILUPBiCGStab:  Solving for omega, Initial residual = 9.86553e-11, Final residual = 9.86553e-11, No Iterations 0
ExecutionTime = 205.36 s  ClockTime = 240 s

Time = 5968

DILUPBiCGStab:  Solving for omega, Initial residual = 9.86553e-11, Final residual = 9.86553e-11, No Iterations 0
ExecutionTime = 205.39 s  ClockTime = 240 s

Time = 5969

DILUPBiCGStab:  Solving for omega, Initial residual = 9.86553e-11, Final residual = 9.86553e-11, No Iterations 0
ExecutionTime = 205.42 s  ClockTime = 240 s

Time = 5970

DILUPBiCGStab:  Solving for omega, Initial residual = 9.86553e-11, Final residual = 9.86553e-11, No Iterations 0
ExecutionTime = 205.44 s  ClockTime = 240 s

Time = 5971

DILUPBiCGStab:  Solving for omega, Initial residual = 9.86553e-11, Final residual = 9.86553e-11, No Iterations 0
ExecutionTime = 205.48 s  ClockTime = 240 s

Time = 5972

DILUPBiCGStab:  Solving for omega, Initial residual = 9.86553e-11, Final residual = 9.86553e-11, No Iterations 0
ExecutionTime = 205.51 s  ClockTime = 240 s

Time = 5973

DILUPBiCGStab:  Solving for omega, Initial residual = 9.86553e-11, Final residual = 9.86553e-11, No Iterations 0
ExecutionTime = 205.53 s  ClockTime = 240 s

Time = 5974

DILUPBiCGStab:  Solving for omega, Initial residual = 9.86553e-11, Final residual = 9.86553e-11, No Iterations 0
ExecutionTime = 205.56 s  ClockTime = 240 s

Time = 5975

DILUPBiCGStab:  Solving for omega, Initial residual = 9.86553e-11, Final residual = 9.86553e-11, No Iterations 0
ExecutionTime = 205.59 s  ClockTime = 240 s

Time = 5976

DILUPBiCGStab:  Solving for omega, Initial residual = 9.86553e-11, Final residual = 9.86553e-11, No Iterations 0
ExecutionTime = 205.62 s  ClockTime = 240 s

Time = 5977

DILUPBiCGStab:  Solving for omega, Initial residual = 9.86553e-11, Final residual = 9.86553e-11, No Iterations 0
ExecutionTime = 205.65 s  ClockTime = 240 s

Time = 5978

DILUPBiCGStab:  Solving for omega, Initial residual = 9.86553e-11, Final residual = 9.86553e-11, No Iterations 0
ExecutionTime = 205.68 s  ClockTime = 240 s

Time = 5979

DILUPBiCGStab:  Solving for omega, Initial residual = 9.86553e-11, Final residual = 9.86553e-11, No Iterations 0
ExecutionTime = 205.71 s  ClockTime = 240 s

Time = 5980

DILUPBiCGStab:  Solving for omega, Initial residual = 9.86553e-11, Final residual = 9.86553e-11, No Iterations 0
ExecutionTime = 205.73 s  ClockTime = 240 s

Time = 5981

DILUPBiCGStab:  Solving for omega, Initial residual = 9.86553e-11, Final residual = 9.86553e-11, No Iterations 0
ExecutionTime = 205.76 s  ClockTime = 240 s

Time = 5982

DILUPBiCGStab:  Solving for omega, Initial residual = 9.86553e-11, Final residual = 9.86553e-11, No Iterations 0
ExecutionTime = 205.78 s  ClockTime = 240 s

Time = 5983

DILUPBiCGStab:  Solving for omega, Initial residual = 9.86553e-11, Final residual = 9.86553e-11, No Iterations 0
ExecutionTime = 205.81 s  ClockTime = 240 s

Time = 5984

DILUPBiCGStab:  Solving for omega, Initial residual = 9.86553e-11, Final residual = 9.86553e-11, No Iterations 0
ExecutionTime = 205.84 s  ClockTime = 240 s

Time = 5985

DILUPBiCGStab:  Solving for omega, Initial residual = 9.86553e-11, Final residual = 9.86553e-11, No Iterations 0
ExecutionTime = 205.87 s  ClockTime = 240 s

Time = 5986

DILUPBiCGStab:  Solving for omega, Initial residual = 9.86553e-11, Final residual = 9.86553e-11, No Iterations 0
ExecutionTime = 205.91 s  ClockTime = 241 s

Time = 5987

DILUPBiCGStab:  Solving for omega, Initial residual = 9.86553e-11, Final residual = 9.86553e-11, No Iterations 0
ExecutionTime = 205.94 s  ClockTime = 241 s

Time = 5988

DILUPBiCGStab:  Solving for omega, Initial residual = 9.86553e-11, Final residual = 9.86553e-11, No Iterations 0
ExecutionTime = 205.98 s  ClockTime = 241 s

Time = 5989

DILUPBiCGStab:  Solving for omega, Initial residual = 9.86553e-11, Final residual = 9.86553e-11, No Iterations 0
ExecutionTime = 206.03 s  ClockTime = 241 s

Time = 5990

DILUPBiCGStab:  Solving for omega, Initial residual = 9.86553e-11, Final residual = 9.86553e-11, No Iterations 0
ExecutionTime = 206.06 s  ClockTime = 241 s

Time = 5991

DILUPBiCGStab:  Solving for omega, Initial residual = 9.86553e-11, Final residual = 9.86553e-11, No Iterations 0
ExecutionTime = 206.09 s  ClockTime = 241 s

Time = 5992

DILUPBiCGStab:  Solving for omega, Initial residual = 9.86553e-11, Final residual = 9.86553e-11, No Iterations 0
ExecutionTime = 206.12 s  ClockTime = 241 s

Time = 5993

DILUPBiCGStab:  Solving for omega, Initial residual = 9.86553e-11, Final residual = 9.86553e-11, No Iterations 0
ExecutionTime = 206.15 s  ClockTime = 241 s

Time = 5994

DILUPBiCGStab:  Solving for omega, Initial residual = 9.86553e-11, Final residual = 9.86553e-11, No Iterations 0
ExecutionTime = 206.18 s  ClockTime = 241 s

Time = 5995

DILUPBiCGStab:  Solving for omega, Initial residual = 9.86553e-11, Final residual = 9.86553e-11, No Iterations 0
ExecutionTime = 206.21 s  ClockTime = 241 s

Time = 5996

DILUPBiCGStab:  Solving for omega, Initial residual = 9.86553e-11, Final residual = 9.86553e-11, No Iterations 0
ExecutionTime = 206.24 s  ClockTime = 241 s

Time = 5997

DILUPBiCGStab:  Solving for omega, Initial residual = 9.86553e-11, Final residual = 9.86553e-11, No Iterations 0
ExecutionTime = 206.27 s  ClockTime = 241 s

Time = 5998

DILUPBiCGStab:  Solving for omega, Initial residual = 9.86553e-11, Final residual = 9.86553e-11, No Iterations 0
ExecutionTime = 206.29 s  ClockTime = 241 s

Time = 5999

DILUPBiCGStab:  Solving for omega, Initial residual = 9.86553e-11, Final residual = 9.86553e-11, No Iterations 0
ExecutionTime = 206.32 s  ClockTime = 241 s

Time = 6000

DILUPBiCGStab:  Solving for omega, Initial residual = 9.86553e-11, Final residual = 9.86553e-11, No Iterations 0
ExecutionTime = 206.5 s  ClockTime = 242 s

yPlus yPlus1 write:
    writing field yPlus
    patch bottom y+ : min = 0.0459733, max = 2.45718, average = 0.612293
End

Finalising parallel run
