/*---------------------------------------------------------------------------*\
| =========                 |                                                 |
| \\      /  F ield         | OpenFOAM: The Open Source CFD Toolbox           |
|  \\    /   O peration     | Version:  2506                                  |
|   \\  /    A nd           | Website:  www.openfoam.com                      |
|    \\/     M anipulation  |                                                 |
\*---------------------------------------------------------------------------*/
Build  : _615aae61-20250627 OPENFOAM=2506 version=2506
Arch   : "LSB;label=32;scalar=64"
Exec   : frozenFoam -parallel
Date   : Oct 08 2025
Time   : 14:33:41
Host   : 69da72c700c0
PID    : 693
I/O    : uncollated
Case   : /home/openfoam/OpenFOAM/openfoam-v2506/run/h42_frozen
nProcs : 4
Hosts  :
(
    (69da72c700c0 4)
)
Pstream initialized with:
    node communication : off [type=host] (4 ranks, 1 nodes)
    topology controls  : none
    consensus exchange : 0 (tuning: 0)
    exchange algorithm : 0
    commsType          : nonBlocking
    polling iterations : 0
trapFpe: Floating point exception trapping enabled (FOAM_SIGFPE).
fileModificationChecking : Monitoring run-time modified files using timeStampMaster (fileModificationSkew 5, maxFileModificationPolls 20)
allowSystemOperations : Allowing user-supplied system call operations

// * * * * * * * * * * * * * * * * * * * * * * * * * * * * * * * * * * * * * //
Create time

Create mesh for time = 0


SIMPLE: no convergence criteria found. Calculations will run for 6000 steps.

Reading field p

Reading field U

Reading/calculating face flux field phi

Selecting incompressible transport model Newtonian
Selecting turbulence model type RAS
Selecting RAS turbulence model frozenSST
Selecting patchDistMethod meshWave
RAS
{
    RASModel        frozenSST;
    turbulence      on;
    printCoeffs     on;
    alphaK1         0.85;
    alphaK2         1;
    alphaOmega1     0.5;
    alphaOmega2     0.856;
    gamma1          0.555556;
    gamma2          0.44;
    beta1           0.075;
    beta2           0.0828;
    betaStar        0.09;
    a1              0.31;
    b1              1;
    c1              10;
    F3              false;
    decayControl    false;
    kInf            0;
    omegaInf        0;
}

No MRF models present

No finite volume options present

Starting time loop

--> FOAM Warning : 
    From void Foam::timeControl::read(const Foam::dictionary&)
    in file db/functionObjects/timeControl/timeControl.C at line 131
    Reading "system/controlDict/functions/yPlus1" at line 55
    Found deprecated 'outputControl'
    Use 'writeControl' with 'writeInterval'
Time = 1

DILUPBiCGStab:  Solving for omega, Initial residual = 0.0153437, Final residual = 4.08027e-11, No Iterations 7
ExecutionTime = 0.46 s  ClockTime = 1 s

Time = 2

DILUPBiCGStab:  Solving for omega, Initial residual = 0.16255, Final residual = 2.58068e-11, No Iterations 7
ExecutionTime = 0.52 s  ClockTime = 1 s

Time = 3

DILUPBiCGStab:  Solving for omega, Initial residual = 0.00774347, Final residual = 8.24126e-11, No Iterations 6
ExecutionTime = 0.57 s  ClockTime = 1 s

Time = 4

DILUPBiCGStab:  Solving for omega, Initial residual = 0.00706272, Final residual = 9.8813e-11, No Iterations 6
ExecutionTime = 0.61 s  ClockTime = 1 s

Time = 5

DILUPBiCGStab:  Solving for omega, Initial residual = 0.00295846, Final residual = 7.34046e-11, No Iterations 7
ExecutionTime = 0.66 s  ClockTime = 1 s

Time = 6

DILUPBiCGStab:  Solving for omega, Initial residual = 0.00208371, Final residual = 7.97769e-11, No Iterations 7
ExecutionTime = 0.74 s  ClockTime = 2 s

Time = 7

DILUPBiCGStab:  Solving for omega, Initial residual = 0.00108962, Final residual = 4.2913e-11, No Iterations 8
ExecutionTime = 0.78 s  ClockTime = 2 s

Time = 8

DILUPBiCGStab:  Solving for omega, Initial residual = 0.000685755, Final residual = 4.30655e-11, No Iterations 8
ExecutionTime = 0.83 s  ClockTime = 2 s

Time = 9

DILUPBiCGStab:  Solving for omega, Initial residual = 0.000396179, Final residual = 4.09896e-11, No Iterations 8
ExecutionTime = 0.89 s  ClockTime = 2 s

Time = 10

DILUPBiCGStab:  Solving for omega, Initial residual = 0.000248515, Final residual = 3.69617e-11, No Iterations 8
ExecutionTime = 0.95 s  ClockTime = 2 s

Time = 11

DILUPBiCGStab:  Solving for omega, Initial residual = 0.000156509, Final residual = 8.19721e-11, No Iterations 7
ExecutionTime = 1 s  ClockTime = 2 s

Time = 12

DILUPBiCGStab:  Solving for omega, Initial residual = 0.000105288, Final residual = 3.74352e-11, No Iterations 8
ExecutionTime = 1.06 s  ClockTime = 2 s

Time = 13

DILUPBiCGStab:  Solving for omega, Initial residual = 7.43057e-05, Final residual = 7.87448e-11, No Iterations 7
ExecutionTime = 1.12 s  ClockTime = 2 s

Time = 14

DILUPBiCGStab:  Solving for omega, Initial residual = 5.6161e-05, Final residual = 2.69947e-11, No Iterations 8
ExecutionTime = 1.17 s  ClockTime = 2 s

Time = 15

DILUPBiCGStab:  Solving for omega, Initial residual = 4.49168e-05, Final residual = 2.29388e-11, No Iterations 8
ExecutionTime = 1.21 s  ClockTime = 2 s

Time = 16

DILUPBiCGStab:  Solving for omega, Initial residual = 3.79037e-05, Final residual = 1.89741e-11, No Iterations 8
ExecutionTime = 1.26 s  ClockTime = 2 s

Time = 17

DILUPBiCGStab:  Solving for omega, Initial residual = 3.32383e-05, Final residual = 1.47099e-11, No Iterations 8
ExecutionTime = 1.31 s  ClockTime = 2 s

Time = 18

DILUPBiCGStab:  Solving for omega, Initial residual = 3.00358e-05, Final residual = 9.39143e-11, No Iterations 6
ExecutionTime = 1.37 s  ClockTime = 2 s

Time = 19

DILUPBiCGStab:  Solving for omega, Initial residual = 2.76703e-05, Final residual = 9.80407e-11, No Iterations 6
ExecutionTime = 1.43 s  ClockTime = 2 s

Time = 20

DILUPBiCGStab:  Solving for omega, Initial residual = 2.58554e-05, Final residual = 9.08509e-11, No Iterations 6
ExecutionTime = 1.48 s  ClockTime = 2 s

Time = 21

DILUPBiCGStab:  Solving for omega, Initial residual = 2.43646e-05, Final residual = 7.76946e-11, No Iterations 6
ExecutionTime = 1.53 s  ClockTime = 2 s

Time = 22

DILUPBiCGStab:  Solving for omega, Initial residual = 2.31143e-05, Final residual = 6.44013e-11, No Iterations 6
ExecutionTime = 1.58 s  ClockTime = 2 s

Time = 23

DILUPBiCGStab:  Solving for omega, Initial residual = 2.2015e-05, Final residual = 5.54665e-11, No Iterations 6
ExecutionTime = 1.62 s  ClockTime = 3 s

Time = 24

DILUPBiCGStab:  Solving for omega, Initial residual = 2.10442e-05, Final residual = 9.41973e-11, No Iterations 6
ExecutionTime = 1.66 s  ClockTime = 3 s

Time = 25

DILUPBiCGStab:  Solving for omega, Initial residual = 2.01604e-05, Final residual = 9.17932e-11, No Iterations 6
ExecutionTime = 1.71 s  ClockTime = 3 s

Time = 26

DILUPBiCGStab:  Solving for omega, Initial residual = 1.9359e-05, Final residual = 9.02697e-11, No Iterations 6
ExecutionTime = 1.75 s  ClockTime = 3 s

Time = 27

DILUPBiCGStab:  Solving for omega, Initial residual = 1.86184e-05, Final residual = 8.84072e-11, No Iterations 6
ExecutionTime = 1.79 s  ClockTime = 3 s

Time = 28

DILUPBiCGStab:  Solving for omega, Initial residual = 1.79374e-05, Final residual = 8.64655e-11, No Iterations 6
ExecutionTime = 1.83 s  ClockTime = 3 s

Time = 29

DILUPBiCGStab:  Solving for omega, Initial residual = 1.7304e-05, Final residual = 8.52961e-11, No Iterations 6
ExecutionTime = 1.87 s  ClockTime = 3 s

Time = 30

DILUPBiCGStab:  Solving for omega, Initial residual = 1.67168e-05, Final residual = 8.44262e-11, No Iterations 6
ExecutionTime = 1.91 s  ClockTime = 3 s

Time = 31

DILUPBiCGStab:  Solving for omega, Initial residual = 1.61679e-05, Final residual = 8.40251e-11, No Iterations 6
ExecutionTime = 1.95 s  ClockTime = 3 s

Time = 32

DILUPBiCGStab:  Solving for omega, Initial residual = 1.56557e-05, Final residual = 8.3834e-11, No Iterations 6
ExecutionTime = 2.02 s  ClockTime = 3 s

Time = 33

DILUPBiCGStab:  Solving for omega, Initial residual = 1.51749e-05, Final residual = 8.32788e-11, No Iterations 6
ExecutionTime = 2.05 s  ClockTime = 3 s

Time = 34

DILUPBiCGStab:  Solving for omega, Initial residual = 1.4723e-05, Final residual = 8.2009e-11, No Iterations 6
ExecutionTime = 2.08 s  ClockTime = 3 s

Time = 35

DILUPBiCGStab:  Solving for omega, Initial residual = 1.42956e-05, Final residual = 8.01112e-11, No Iterations 6
ExecutionTime = 2.11 s  ClockTime = 3 s

Time = 36

DILUPBiCGStab:  Solving for omega, Initial residual = 1.3891e-05, Final residual = 7.74865e-11, No Iterations 6
ExecutionTime = 2.15 s  ClockTime = 3 s

Time = 37

DILUPBiCGStab:  Solving for omega, Initial residual = 1.35086e-05, Final residual = 7.43735e-11, No Iterations 6
ExecutionTime = 2.18 s  ClockTime = 3 s

Time = 38

DILUPBiCGStab:  Solving for omega, Initial residual = 1.31472e-05, Final residual = 7.11181e-11, No Iterations 6
ExecutionTime = 2.21 s  ClockTime = 3 s

Time = 39

DILUPBiCGStab:  Solving for omega, Initial residual = 1.28051e-05, Final residual = 6.82578e-11, No Iterations 6
ExecutionTime = 2.24 s  ClockTime = 3 s

Time = 40

DILUPBiCGStab:  Solving for omega, Initial residual = 1.24809e-05, Final residual = 6.60287e-11, No Iterations 6
ExecutionTime = 2.28 s  ClockTime = 3 s

Time = 41

DILUPBiCGStab:  Solving for omega, Initial residual = 1.21732e-05, Final residual = 6.44321e-11, No Iterations 6
ExecutionTime = 2.31 s  ClockTime = 3 s

Time = 42

DILUPBiCGStab:  Solving for omega, Initial residual = 1.18808e-05, Final residual = 6.3207e-11, No Iterations 6
ExecutionTime = 2.35 s  ClockTime = 3 s

Time = 43

DILUPBiCGStab:  Solving for omega, Initial residual = 1.16024e-05, Final residual = 6.18151e-11, No Iterations 6
ExecutionTime = 2.39 s  ClockTime = 3 s

Time = 44

DILUPBiCGStab:  Solving for omega, Initial residual = 1.1337e-05, Final residual = 5.79315e-11, No Iterations 6
ExecutionTime = 2.42 s  ClockTime = 4 s

Time = 45

DILUPBiCGStab:  Solving for omega, Initial residual = 1.10835e-05, Final residual = 5.01398e-11, No Iterations 6
ExecutionTime = 2.48 s  ClockTime = 4 s

Time = 46

DILUPBiCGStab:  Solving for omega, Initial residual = 1.08411e-05, Final residual = 8.51235e-11, No Iterations 5
ExecutionTime = 2.52 s  ClockTime = 4 s

Time = 47

DILUPBiCGStab:  Solving for omega, Initial residual = 1.0609e-05, Final residual = 8.59516e-11, No Iterations 5
ExecutionTime = 2.55 s  ClockTime = 4 s

Time = 48

DILUPBiCGStab:  Solving for omega, Initial residual = 1.03865e-05, Final residual = 9.17045e-11, No Iterations 5
ExecutionTime = 2.58 s  ClockTime = 4 s

Time = 49

DILUPBiCGStab:  Solving for omega, Initial residual = 1.01728e-05, Final residual = 9.58715e-11, No Iterations 5
ExecutionTime = 2.61 s  ClockTime = 4 s

Time = 50

DILUPBiCGStab:  Solving for omega, Initial residual = 9.96739e-06, Final residual = 9.44445e-11, No Iterations 5
ExecutionTime = 2.65 s  ClockTime = 4 s

Time = 51

DILUPBiCGStab:  Solving for omega, Initial residual = 9.76958e-06, Final residual = 8.98205e-11, No Iterations 5
ExecutionTime = 2.68 s  ClockTime = 4 s

Time = 52

DILUPBiCGStab:  Solving for omega, Initial residual = 9.57878e-06, Final residual = 8.72898e-11, No Iterations 5
ExecutionTime = 2.72 s  ClockTime = 4 s

Time = 53

DILUPBiCGStab:  Solving for omega, Initial residual = 9.39438e-06, Final residual = 9.35192e-11, No Iterations 5
ExecutionTime = 2.76 s  ClockTime = 4 s

Time = 54

DILUPBiCGStab:  Solving for omega, Initial residual = 9.21585e-06, Final residual = 6.98629e-11, No Iterations 6
ExecutionTime = 2.8 s  ClockTime = 4 s

Time = 55

DILUPBiCGStab:  Solving for omega, Initial residual = 9.04265e-06, Final residual = 6.91518e-11, No Iterations 6
ExecutionTime = 2.83 s  ClockTime = 4 s

Time = 56

DILUPBiCGStab:  Solving for omega, Initial residual = 8.8743e-06, Final residual = 7.77611e-11, No Iterations 6
ExecutionTime = 2.88 s  ClockTime = 4 s

Time = 57

DILUPBiCGStab:  Solving for omega, Initial residual = 8.71032e-06, Final residual = 8.31757e-11, No Iterations 6
ExecutionTime = 2.92 s  ClockTime = 4 s

Time = 58

DILUPBiCGStab:  Solving for omega, Initial residual = 8.55024e-06, Final residual = 8.86904e-11, No Iterations 6
ExecutionTime = 2.96 s  ClockTime = 4 s

Time = 59

DILUPBiCGStab:  Solving for omega, Initial residual = 8.39368e-06, Final residual = 9.00284e-11, No Iterations 6
ExecutionTime = 3 s  ClockTime = 4 s

Time = 60

DILUPBiCGStab:  Solving for omega, Initial residual = 8.24031e-06, Final residual = 9.56433e-11, No Iterations 5
ExecutionTime = 3.03 s  ClockTime = 4 s

Time = 61

DILUPBiCGStab:  Solving for omega, Initial residual = 8.08985e-06, Final residual = 7.05122e-11, No Iterations 5
ExecutionTime = 3.06 s  ClockTime = 4 s

Time = 62

DILUPBiCGStab:  Solving for omega, Initial residual = 7.94209e-06, Final residual = 3.60405e-11, No Iterations 6
ExecutionTime = 3.1 s  ClockTime = 4 s

Time = 63

DILUPBiCGStab:  Solving for omega, Initial residual = 7.79691e-06, Final residual = 3.65054e-11, No Iterations 6
ExecutionTime = 3.14 s  ClockTime = 5 s

Time = 64

DILUPBiCGStab:  Solving for omega, Initial residual = 7.65426e-06, Final residual = 6.39326e-11, No Iterations 6
ExecutionTime = 3.18 s  ClockTime = 5 s

Time = 65

DILUPBiCGStab:  Solving for omega, Initial residual = 7.51415e-06, Final residual = 9.6487e-11, No Iterations 6
ExecutionTime = 3.23 s  ClockTime = 5 s

Time = 66

DILUPBiCGStab:  Solving for omega, Initial residual = 7.37658e-06, Final residual = 9.11646e-12, No Iterations 7
ExecutionTime = 3.26 s  ClockTime = 5 s

Time = 67

DILUPBiCGStab:  Solving for omega, Initial residual = 7.24161e-06, Final residual = 8.72807e-12, No Iterations 7
ExecutionTime = 3.29 s  ClockTime = 5 s

Time = 68

DILUPBiCGStab:  Solving for omega, Initial residual = 7.10932e-06, Final residual = 9.48559e-11, No Iterations 5
ExecutionTime = 3.33 s  ClockTime = 5 s

Time = 69

DILUPBiCGStab:  Solving for omega, Initial residual = 6.97975e-06, Final residual = 8.87765e-11, No Iterations 5
ExecutionTime = 3.36 s  ClockTime = 5 s

Time = 70

DILUPBiCGStab:  Solving for omega, Initial residual = 6.85294e-06, Final residual = 8.32225e-11, No Iterations 5
ExecutionTime = 3.4 s  ClockTime = 5 s

Time = 71

DILUPBiCGStab:  Solving for omega, Initial residual = 6.72886e-06, Final residual = 7.82255e-11, No Iterations 5
ExecutionTime = 3.44 s  ClockTime = 5 s

Time = 72

DILUPBiCGStab:  Solving for omega, Initial residual = 6.60751e-06, Final residual = 7.36079e-11, No Iterations 5
ExecutionTime = 3.47 s  ClockTime = 5 s

Time = 73

DILUPBiCGStab:  Solving for omega, Initial residual = 6.48884e-06, Final residual = 6.92472e-11, No Iterations 5
ExecutionTime = 3.5 s  ClockTime = 5 s

Time = 74

DILUPBiCGStab:  Solving for omega, Initial residual = 6.37278e-06, Final residual = 6.50722e-11, No Iterations 5
ExecutionTime = 3.54 s  ClockTime = 5 s

Time = 75

DILUPBiCGStab:  Solving for omega, Initial residual = 6.25923e-06, Final residual = 6.11002e-11, No Iterations 5
ExecutionTime = 3.57 s  ClockTime = 5 s

Time = 76

DILUPBiCGStab:  Solving for omega, Initial residual = 6.14812e-06, Final residual = 5.72922e-11, No Iterations 5
ExecutionTime = 3.6 s  ClockTime = 5 s

Time = 77

DILUPBiCGStab:  Solving for omega, Initial residual = 6.03933e-06, Final residual = 5.36435e-11, No Iterations 5
ExecutionTime = 3.64 s  ClockTime = 5 s

Time = 78

DILUPBiCGStab:  Solving for omega, Initial residual = 5.93277e-06, Final residual = 5.01478e-11, No Iterations 5
ExecutionTime = 3.67 s  ClockTime = 5 s

Time = 79

DILUPBiCGStab:  Solving for omega, Initial residual = 5.82831e-06, Final residual = 4.67775e-11, No Iterations 5
ExecutionTime = 3.7 s  ClockTime = 5 s

Time = 80

DILUPBiCGStab:  Solving for omega, Initial residual = 5.72589e-06, Final residual = 4.32837e-11, No Iterations 5
ExecutionTime = 3.74 s  ClockTime = 5 s

Time = 81

DILUPBiCGStab:  Solving for omega, Initial residual = 5.62539e-06, Final residual = 4.4735e-11, No Iterations 5
ExecutionTime = 3.77 s  ClockTime = 5 s

Time = 82

DILUPBiCGStab:  Solving for omega, Initial residual = 5.52675e-06, Final residual = 3.94902e-11, No Iterations 5
ExecutionTime = 3.8 s  ClockTime = 5 s

Time = 83

DILUPBiCGStab:  Solving for omega, Initial residual = 5.42987e-06, Final residual = 3.69655e-11, No Iterations 5
ExecutionTime = 3.84 s  ClockTime = 6 s

Time = 84

DILUPBiCGStab:  Solving for omega, Initial residual = 5.33469e-06, Final residual = 3.47835e-11, No Iterations 5
ExecutionTime = 3.89 s  ClockTime = 6 s

Time = 85

DILUPBiCGStab:  Solving for omega, Initial residual = 5.24113e-06, Final residual = 9.41264e-11, No Iterations 5
ExecutionTime = 3.92 s  ClockTime = 6 s

Time = 86

DILUPBiCGStab:  Solving for omega, Initial residual = 5.14914e-06, Final residual = 8.79951e-11, No Iterations 5
ExecutionTime = 3.96 s  ClockTime = 6 s

Time = 87

DILUPBiCGStab:  Solving for omega, Initial residual = 5.05867e-06, Final residual = 8.24512e-11, No Iterations 5
ExecutionTime = 3.99 s  ClockTime = 6 s

Time = 88

DILUPBiCGStab:  Solving for omega, Initial residual = 4.96966e-06, Final residual = 7.73645e-11, No Iterations 5
ExecutionTime = 4.03 s  ClockTime = 6 s

Time = 89

DILUPBiCGStab:  Solving for omega, Initial residual = 4.88208e-06, Final residual = 7.27349e-11, No Iterations 5
ExecutionTime = 4.07 s  ClockTime = 6 s

Time = 90

DILUPBiCGStab:  Solving for omega, Initial residual = 4.79589e-06, Final residual = 6.85634e-11, No Iterations 5
ExecutionTime = 4.11 s  ClockTime = 6 s

Time = 91

DILUPBiCGStab:  Solving for omega, Initial residual = 4.71107e-06, Final residual = 6.4868e-11, No Iterations 5
ExecutionTime = 4.16 s  ClockTime = 6 s

Time = 92

DILUPBiCGStab:  Solving for omega, Initial residual = 4.62758e-06, Final residual = 6.17014e-11, No Iterations 5
ExecutionTime = 4.2 s  ClockTime = 6 s

Time = 93

DILUPBiCGStab:  Solving for omega, Initial residual = 4.54542e-06, Final residual = 5.90737e-11, No Iterations 5
ExecutionTime = 4.23 s  ClockTime = 6 s

Time = 94

DILUPBiCGStab:  Solving for omega, Initial residual = 4.46456e-06, Final residual = 5.70363e-11, No Iterations 5
ExecutionTime = 4.27 s  ClockTime = 6 s

Time = 95

DILUPBiCGStab:  Solving for omega, Initial residual = 4.385e-06, Final residual = 5.54689e-11, No Iterations 5
ExecutionTime = 4.3 s  ClockTime = 6 s

Time = 96

DILUPBiCGStab:  Solving for omega, Initial residual = 4.30674e-06, Final residual = 5.4249e-11, No Iterations 5
ExecutionTime = 4.34 s  ClockTime = 6 s

Time = 97

DILUPBiCGStab:  Solving for omega, Initial residual = 4.22976e-06, Final residual = 9.93866e-11, No Iterations 4
ExecutionTime = 4.38 s  ClockTime = 6 s

Time = 98

DILUPBiCGStab:  Solving for omega, Initial residual = 4.15407e-06, Final residual = 9.33172e-11, No Iterations 4
ExecutionTime = 4.42 s  ClockTime = 6 s

Time = 99

DILUPBiCGStab:  Solving for omega, Initial residual = 4.07968e-06, Final residual = 8.71976e-11, No Iterations 4
ExecutionTime = 4.46 s  ClockTime = 6 s

Time = 100

DILUPBiCGStab:  Solving for omega, Initial residual = 4.00659e-06, Final residual = 8.19412e-11, No Iterations 4
ExecutionTime = 4.5 s  ClockTime = 6 s

Time = 101

DILUPBiCGStab:  Solving for omega, Initial residual = 3.93481e-06, Final residual = 7.74943e-11, No Iterations 4
ExecutionTime = 4.54 s  ClockTime = 6 s

Time = 102

DILUPBiCGStab:  Solving for omega, Initial residual = 3.86434e-06, Final residual = 7.37783e-11, No Iterations 4
ExecutionTime = 4.57 s  ClockTime = 6 s

Time = 103

DILUPBiCGStab:  Solving for omega, Initial residual = 3.79519e-06, Final residual = 7.06667e-11, No Iterations 4
ExecutionTime = 4.61 s  ClockTime = 6 s

Time = 104

DILUPBiCGStab:  Solving for omega, Initial residual = 3.72736e-06, Final residual = 6.80473e-11, No Iterations 4
ExecutionTime = 4.65 s  ClockTime = 6 s

Time = 105

DILUPBiCGStab:  Solving for omega, Initial residual = 3.66086e-06, Final residual = 6.5833e-11, No Iterations 4
ExecutionTime = 4.69 s  ClockTime = 7 s

Time = 106

DILUPBiCGStab:  Solving for omega, Initial residual = 3.5957e-06, Final residual = 6.39824e-11, No Iterations 4
ExecutionTime = 4.74 s  ClockTime = 7 s

Time = 107

DILUPBiCGStab:  Solving for omega, Initial residual = 3.53186e-06, Final residual = 6.24202e-11, No Iterations 4
ExecutionTime = 4.78 s  ClockTime = 7 s

Time = 108

DILUPBiCGStab:  Solving for omega, Initial residual = 3.46935e-06, Final residual = 6.10701e-11, No Iterations 4
ExecutionTime = 4.81 s  ClockTime = 7 s

Time = 109

DILUPBiCGStab:  Solving for omega, Initial residual = 3.40817e-06, Final residual = 5.98919e-11, No Iterations 4
ExecutionTime = 4.83 s  ClockTime = 7 s

Time = 110

DILUPBiCGStab:  Solving for omega, Initial residual = 3.3483e-06, Final residual = 5.88446e-11, No Iterations 4
ExecutionTime = 4.87 s  ClockTime = 7 s

Time = 111

DILUPBiCGStab:  Solving for omega, Initial residual = 3.28974e-06, Final residual = 5.78845e-11, No Iterations 4
ExecutionTime = 4.91 s  ClockTime = 7 s

Time = 112

DILUPBiCGStab:  Solving for omega, Initial residual = 3.23247e-06, Final residual = 5.69724e-11, No Iterations 4
ExecutionTime = 4.94 s  ClockTime = 7 s

Time = 113

DILUPBiCGStab:  Solving for omega, Initial residual = 3.17649e-06, Final residual = 5.60788e-11, No Iterations 4
ExecutionTime = 4.98 s  ClockTime = 7 s

Time = 114

DILUPBiCGStab:  Solving for omega, Initial residual = 3.12176e-06, Final residual = 5.51907e-11, No Iterations 4
ExecutionTime = 5.01 s  ClockTime = 7 s

Time = 115

DILUPBiCGStab:  Solving for omega, Initial residual = 3.06827e-06, Final residual = 5.42628e-11, No Iterations 4
ExecutionTime = 5.04 s  ClockTime = 7 s

Time = 116

DILUPBiCGStab:  Solving for omega, Initial residual = 3.01599e-06, Final residual = 5.32896e-11, No Iterations 4
ExecutionTime = 5.08 s  ClockTime = 7 s

Time = 117

DILUPBiCGStab:  Solving for omega, Initial residual = 2.9649e-06, Final residual = 9.8795e-11, No Iterations 4
ExecutionTime = 5.13 s  ClockTime = 7 s

Time = 118

DILUPBiCGStab:  Solving for omega, Initial residual = 2.91497e-06, Final residual = 9.51814e-11, No Iterations 4
ExecutionTime = 5.16 s  ClockTime = 7 s

Time = 119

DILUPBiCGStab:  Solving for omega, Initial residual = 2.86616e-06, Final residual = 9.26408e-11, No Iterations 4
ExecutionTime = 5.2 s  ClockTime = 7 s

Time = 120

DILUPBiCGStab:  Solving for omega, Initial residual = 2.81846e-06, Final residual = 9.01165e-11, No Iterations 4
ExecutionTime = 5.23 s  ClockTime = 7 s

Time = 121

DILUPBiCGStab:  Solving for omega, Initial residual = 2.77182e-06, Final residual = 8.75547e-11, No Iterations 4
ExecutionTime = 5.27 s  ClockTime = 7 s

Time = 122

DILUPBiCGStab:  Solving for omega, Initial residual = 2.72621e-06, Final residual = 8.49364e-11, No Iterations 4
ExecutionTime = 5.31 s  ClockTime = 7 s

Time = 123

DILUPBiCGStab:  Solving for omega, Initial residual = 2.6816e-06, Final residual = 8.22643e-11, No Iterations 4
ExecutionTime = 5.36 s  ClockTime = 7 s

Time = 124

DILUPBiCGStab:  Solving for omega, Initial residual = 2.63796e-06, Final residual = 7.95424e-11, No Iterations 4
ExecutionTime = 5.41 s  ClockTime = 7 s

Time = 125

DILUPBiCGStab:  Solving for omega, Initial residual = 2.59525e-06, Final residual = 7.67768e-11, No Iterations 4
ExecutionTime = 5.45 s  ClockTime = 7 s

Time = 126

DILUPBiCGStab:  Solving for omega, Initial residual = 2.55345e-06, Final residual = 7.40197e-11, No Iterations 4
ExecutionTime = 5.49 s  ClockTime = 7 s

Time = 127

DILUPBiCGStab:  Solving for omega, Initial residual = 2.51252e-06, Final residual = 7.12891e-11, No Iterations 4
ExecutionTime = 5.52 s  ClockTime = 8 s

Time = 128

DILUPBiCGStab:  Solving for omega, Initial residual = 2.47243e-06, Final residual = 6.85533e-11, No Iterations 4
ExecutionTime = 5.56 s  ClockTime = 8 s

Time = 129

DILUPBiCGStab:  Solving for omega, Initial residual = 2.43316e-06, Final residual = 6.58467e-11, No Iterations 4
ExecutionTime = 5.59 s  ClockTime = 8 s

Time = 130

DILUPBiCGStab:  Solving for omega, Initial residual = 2.39467e-06, Final residual = 6.31894e-11, No Iterations 4
ExecutionTime = 5.63 s  ClockTime = 8 s

Time = 131

DILUPBiCGStab:  Solving for omega, Initial residual = 2.35694e-06, Final residual = 6.05788e-11, No Iterations 4
ExecutionTime = 5.66 s  ClockTime = 8 s

Time = 132

DILUPBiCGStab:  Solving for omega, Initial residual = 2.31994e-06, Final residual = 5.80115e-11, No Iterations 4
ExecutionTime = 5.7 s  ClockTime = 8 s

Time = 133

DILUPBiCGStab:  Solving for omega, Initial residual = 2.28365e-06, Final residual = 5.5486e-11, No Iterations 4
ExecutionTime = 5.73 s  ClockTime = 8 s

Time = 134

DILUPBiCGStab:  Solving for omega, Initial residual = 2.24803e-06, Final residual = 5.30114e-11, No Iterations 4
ExecutionTime = 5.76 s  ClockTime = 8 s

Time = 135

DILUPBiCGStab:  Solving for omega, Initial residual = 2.21306e-06, Final residual = 5.06063e-11, No Iterations 4
ExecutionTime = 5.8 s  ClockTime = 8 s

Time = 136

DILUPBiCGStab:  Solving for omega, Initial residual = 2.17873e-06, Final residual = 4.82901e-11, No Iterations 4
ExecutionTime = 5.83 s  ClockTime = 8 s

Time = 137

DILUPBiCGStab:  Solving for omega, Initial residual = 2.145e-06, Final residual = 4.6072e-11, No Iterations 4
ExecutionTime = 5.87 s  ClockTime = 8 s

Time = 138

DILUPBiCGStab:  Solving for omega, Initial residual = 2.11185e-06, Final residual = 4.39559e-11, No Iterations 4
ExecutionTime = 5.9 s  ClockTime = 8 s

Time = 139

DILUPBiCGStab:  Solving for omega, Initial residual = 2.07928e-06, Final residual = 4.19445e-11, No Iterations 4
ExecutionTime = 5.94 s  ClockTime = 8 s

Time = 140

DILUPBiCGStab:  Solving for omega, Initial residual = 2.04725e-06, Final residual = 4.00372e-11, No Iterations 4
ExecutionTime = 5.98 s  ClockTime = 8 s

Time = 141

DILUPBiCGStab:  Solving for omega, Initial residual = 2.01575e-06, Final residual = 3.82355e-11, No Iterations 4
ExecutionTime = 6.03 s  ClockTime = 8 s

Time = 142

DILUPBiCGStab:  Solving for omega, Initial residual = 1.98476e-06, Final residual = 3.65368e-11, No Iterations 4
ExecutionTime = 6.07 s  ClockTime = 8 s

Time = 143

DILUPBiCGStab:  Solving for omega, Initial residual = 1.95427e-06, Final residual = 3.49429e-11, No Iterations 4
ExecutionTime = 6.1 s  ClockTime = 8 s

Time = 144

DILUPBiCGStab:  Solving for omega, Initial residual = 1.92425e-06, Final residual = 3.34458e-11, No Iterations 4
ExecutionTime = 6.14 s  ClockTime = 8 s

Time = 145

DILUPBiCGStab:  Solving for omega, Initial residual = 1.8947e-06, Final residual = 3.20385e-11, No Iterations 4
ExecutionTime = 6.18 s  ClockTime = 8 s

Time = 146

DILUPBiCGStab:  Solving for omega, Initial residual = 1.8656e-06, Final residual = 3.07223e-11, No Iterations 4
ExecutionTime = 6.21 s  ClockTime = 8 s

Time = 147

DILUPBiCGStab:  Solving for omega, Initial residual = 1.83694e-06, Final residual = 2.94984e-11, No Iterations 4
ExecutionTime = 6.26 s  ClockTime = 8 s

Time = 148

DILUPBiCGStab:  Solving for omega, Initial residual = 1.8087e-06, Final residual = 2.83511e-11, No Iterations 4
ExecutionTime = 6.29 s  ClockTime = 8 s

Time = 149

DILUPBiCGStab:  Solving for omega, Initial residual = 1.78087e-06, Final residual = 2.72894e-11, No Iterations 4
ExecutionTime = 6.32 s  ClockTime = 8 s

Time = 150

DILUPBiCGStab:  Solving for omega, Initial residual = 1.75344e-06, Final residual = 2.63111e-11, No Iterations 4
ExecutionTime = 6.36 s  ClockTime = 8 s

Time = 151

DILUPBiCGStab:  Solving for omega, Initial residual = 1.7264e-06, Final residual = 2.541e-11, No Iterations 4
ExecutionTime = 6.39 s  ClockTime = 9 s

Time = 152

DILUPBiCGStab:  Solving for omega, Initial residual = 1.69974e-06, Final residual = 2.45789e-11, No Iterations 4
ExecutionTime = 6.43 s  ClockTime = 9 s

Time = 153

DILUPBiCGStab:  Solving for omega, Initial residual = 1.67345e-06, Final residual = 2.38172e-11, No Iterations 4
ExecutionTime = 6.47 s  ClockTime = 9 s

Time = 154

DILUPBiCGStab:  Solving for omega, Initial residual = 1.64752e-06, Final residual = 9.73811e-11, No Iterations 3
ExecutionTime = 6.51 s  ClockTime = 9 s

Time = 155

DILUPBiCGStab:  Solving for omega, Initial residual = 1.62194e-06, Final residual = 2.33604e-11, No Iterations 4
ExecutionTime = 6.55 s  ClockTime = 9 s

Time = 156

DILUPBiCGStab:  Solving for omega, Initial residual = 1.5967e-06, Final residual = 9.15127e-11, No Iterations 3
ExecutionTime = 6.59 s  ClockTime = 9 s

Time = 157

DILUPBiCGStab:  Solving for omega, Initial residual = 1.57181e-06, Final residual = 2.20683e-11, No Iterations 4
ExecutionTime = 6.63 s  ClockTime = 9 s

Time = 158

DILUPBiCGStab:  Solving for omega, Initial residual = 1.54723e-06, Final residual = 8.64423e-11, No Iterations 3
ExecutionTime = 6.66 s  ClockTime = 9 s

Time = 159

DILUPBiCGStab:  Solving for omega, Initial residual = 1.52298e-06, Final residual = 9.57024e-11, No Iterations 3
ExecutionTime = 6.7 s  ClockTime = 9 s

Time = 160

DILUPBiCGStab:  Solving for omega, Initial residual = 1.49905e-06, Final residual = 9.63687e-11, No Iterations 3
ExecutionTime = 6.74 s  ClockTime = 9 s

Time = 161

DILUPBiCGStab:  Solving for omega, Initial residual = 1.47543e-06, Final residual = 9.48149e-11, No Iterations 3
ExecutionTime = 6.77 s  ClockTime = 9 s

Time = 162

DILUPBiCGStab:  Solving for omega, Initial residual = 1.45211e-06, Final residual = 9.30473e-11, No Iterations 3
ExecutionTime = 6.8 s  ClockTime = 9 s

Time = 163

DILUPBiCGStab:  Solving for omega, Initial residual = 1.4291e-06, Final residual = 9.13039e-11, No Iterations 3
ExecutionTime = 6.83 s  ClockTime = 9 s

Time = 164

DILUPBiCGStab:  Solving for omega, Initial residual = 1.40638e-06, Final residual = 8.96232e-11, No Iterations 3
ExecutionTime = 6.87 s  ClockTime = 9 s

Time = 165

DILUPBiCGStab:  Solving for omega, Initial residual = 1.38395e-06, Final residual = 8.8011e-11, No Iterations 3
ExecutionTime = 6.91 s  ClockTime = 9 s

Time = 166

DILUPBiCGStab:  Solving for omega, Initial residual = 1.36181e-06, Final residual = 8.64663e-11, No Iterations 3
ExecutionTime = 6.94 s  ClockTime = 9 s

Time = 167

DILUPBiCGStab:  Solving for omega, Initial residual = 1.33995e-06, Final residual = 8.49845e-11, No Iterations 3
ExecutionTime = 6.98 s  ClockTime = 9 s

Time = 168

DILUPBiCGStab:  Solving for omega, Initial residual = 1.31838e-06, Final residual = 8.35588e-11, No Iterations 3
ExecutionTime = 7.01 s  ClockTime = 9 s

Time = 169

DILUPBiCGStab:  Solving for omega, Initial residual = 1.29708e-06, Final residual = 8.21864e-11, No Iterations 3
ExecutionTime = 7.05 s  ClockTime = 9 s

Time = 170

DILUPBiCGStab:  Solving for omega, Initial residual = 1.27606e-06, Final residual = 8.0863e-11, No Iterations 3
ExecutionTime = 7.08 s  ClockTime = 9 s

Time = 171

DILUPBiCGStab:  Solving for omega, Initial residual = 1.2553e-06, Final residual = 7.95839e-11, No Iterations 3
ExecutionTime = 7.11 s  ClockTime = 9 s

Time = 172

DILUPBiCGStab:  Solving for omega, Initial residual = 1.23482e-06, Final residual = 7.83453e-11, No Iterations 3
ExecutionTime = 7.14 s  ClockTime = 9 s

Time = 173

DILUPBiCGStab:  Solving for omega, Initial residual = 1.21461e-06, Final residual = 7.71435e-11, No Iterations 3
ExecutionTime = 7.19 s  ClockTime = 9 s

Time = 174

DILUPBiCGStab:  Solving for omega, Initial residual = 1.19466e-06, Final residual = 7.59756e-11, No Iterations 3
ExecutionTime = 7.22 s  ClockTime = 9 s

Time = 175

DILUPBiCGStab:  Solving for omega, Initial residual = 1.17497e-06, Final residual = 7.48397e-11, No Iterations 3
ExecutionTime = 7.25 s  ClockTime = 10 s

Time = 176

DILUPBiCGStab:  Solving for omega, Initial residual = 1.15554e-06, Final residual = 7.37312e-11, No Iterations 3
ExecutionTime = 7.29 s  ClockTime = 10 s

Time = 177

DILUPBiCGStab:  Solving for omega, Initial residual = 1.13637e-06, Final residual = 7.26508e-11, No Iterations 3
ExecutionTime = 7.33 s  ClockTime = 10 s

Time = 178

DILUPBiCGStab:  Solving for omega, Initial residual = 1.11746e-06, Final residual = 7.15942e-11, No Iterations 3
ExecutionTime = 7.36 s  ClockTime = 10 s

Time = 179

DILUPBiCGStab:  Solving for omega, Initial residual = 1.09879e-06, Final residual = 7.05585e-11, No Iterations 3
ExecutionTime = 7.4 s  ClockTime = 10 s

Time = 180

DILUPBiCGStab:  Solving for omega, Initial residual = 1.08038e-06, Final residual = 6.95448e-11, No Iterations 3
ExecutionTime = 7.43 s  ClockTime = 10 s

Time = 181

DILUPBiCGStab:  Solving for omega, Initial residual = 1.06222e-06, Final residual = 6.85492e-11, No Iterations 3
ExecutionTime = 7.46 s  ClockTime = 10 s

Time = 182

DILUPBiCGStab:  Solving for omega, Initial residual = 1.04431e-06, Final residual = 6.7572e-11, No Iterations 3
ExecutionTime = 7.5 s  ClockTime = 10 s

Time = 183

DILUPBiCGStab:  Solving for omega, Initial residual = 1.02664e-06, Final residual = 6.661e-11, No Iterations 3
ExecutionTime = 7.54 s  ClockTime = 10 s

Time = 184

DILUPBiCGStab:  Solving for omega, Initial residual = 1.00922e-06, Final residual = 6.56654e-11, No Iterations 3
ExecutionTime = 7.58 s  ClockTime = 10 s

Time = 185

DILUPBiCGStab:  Solving for omega, Initial residual = 9.92032e-07, Final residual = 6.47341e-11, No Iterations 3
ExecutionTime = 7.61 s  ClockTime = 10 s

Time = 186

DILUPBiCGStab:  Solving for omega, Initial residual = 9.75087e-07, Final residual = 6.38172e-11, No Iterations 3
ExecutionTime = 7.64 s  ClockTime = 10 s

Time = 187

DILUPBiCGStab:  Solving for omega, Initial residual = 9.58381e-07, Final residual = 6.29152e-11, No Iterations 3
ExecutionTime = 7.67 s  ClockTime = 10 s

Time = 188

DILUPBiCGStab:  Solving for omega, Initial residual = 9.4191e-07, Final residual = 6.20251e-11, No Iterations 3
ExecutionTime = 7.71 s  ClockTime = 10 s

Time = 189

DILUPBiCGStab:  Solving for omega, Initial residual = 9.25672e-07, Final residual = 6.11495e-11, No Iterations 3
ExecutionTime = 7.75 s  ClockTime = 10 s

Time = 190

DILUPBiCGStab:  Solving for omega, Initial residual = 9.09666e-07, Final residual = 6.02827e-11, No Iterations 3
ExecutionTime = 7.79 s  ClockTime = 10 s

Time = 191

DILUPBiCGStab:  Solving for omega, Initial residual = 8.9389e-07, Final residual = 5.94276e-11, No Iterations 3
ExecutionTime = 7.83 s  ClockTime = 10 s

Time = 192

DILUPBiCGStab:  Solving for omega, Initial residual = 8.78342e-07, Final residual = 5.85818e-11, No Iterations 3
ExecutionTime = 7.88 s  ClockTime = 10 s

Time = 193

DILUPBiCGStab:  Solving for omega, Initial residual = 8.6302e-07, Final residual = 5.77454e-11, No Iterations 3
ExecutionTime = 7.91 s  ClockTime = 10 s

Time = 194

DILUPBiCGStab:  Solving for omega, Initial residual = 8.47921e-07, Final residual = 5.69182e-11, No Iterations 3
ExecutionTime = 7.95 s  ClockTime = 10 s

Time = 195

DILUPBiCGStab:  Solving for omega, Initial residual = 8.33045e-07, Final residual = 5.61008e-11, No Iterations 3
ExecutionTime = 7.99 s  ClockTime = 10 s

Time = 196

DILUPBiCGStab:  Solving for omega, Initial residual = 8.18388e-07, Final residual = 5.53004e-11, No Iterations 3
ExecutionTime = 8.03 s  ClockTime = 10 s

Time = 197

DILUPBiCGStab:  Solving for omega, Initial residual = 8.03949e-07, Final residual = 5.44966e-11, No Iterations 3
ExecutionTime = 8.07 s  ClockTime = 10 s

Time = 198

DILUPBiCGStab:  Solving for omega, Initial residual = 7.89726e-07, Final residual = 5.37076e-11, No Iterations 3
ExecutionTime = 8.11 s  ClockTime = 11 s

Time = 199

DILUPBiCGStab:  Solving for omega, Initial residual = 7.75717e-07, Final residual = 5.29262e-11, No Iterations 3
ExecutionTime = 8.15 s  ClockTime = 11 s

Time = 200

DILUPBiCGStab:  Solving for omega, Initial residual = 7.6192e-07, Final residual = 5.21532e-11, No Iterations 3
ExecutionTime = 8.18 s  ClockTime = 11 s

Time = 201

DILUPBiCGStab:  Solving for omega, Initial residual = 7.48333e-07, Final residual = 5.13889e-11, No Iterations 3
ExecutionTime = 8.21 s  ClockTime = 11 s

Time = 202

DILUPBiCGStab:  Solving for omega, Initial residual = 7.34953e-07, Final residual = 5.06333e-11, No Iterations 3
ExecutionTime = 8.25 s  ClockTime = 11 s

Time = 203

DILUPBiCGStab:  Solving for omega, Initial residual = 7.21779e-07, Final residual = 4.98864e-11, No Iterations 3
ExecutionTime = 8.28 s  ClockTime = 11 s

Time = 204

DILUPBiCGStab:  Solving for omega, Initial residual = 7.08808e-07, Final residual = 4.91555e-11, No Iterations 3
ExecutionTime = 8.31 s  ClockTime = 11 s

Time = 205

DILUPBiCGStab:  Solving for omega, Initial residual = 6.96038e-07, Final residual = 4.84251e-11, No Iterations 3
ExecutionTime = 8.34 s  ClockTime = 11 s

Time = 206

DILUPBiCGStab:  Solving for omega, Initial residual = 6.83468e-07, Final residual = 4.77008e-11, No Iterations 3
ExecutionTime = 8.37 s  ClockTime = 11 s

Time = 207

DILUPBiCGStab:  Solving for omega, Initial residual = 6.71095e-07, Final residual = 4.69875e-11, No Iterations 3
ExecutionTime = 8.41 s  ClockTime = 11 s

Time = 208

DILUPBiCGStab:  Solving for omega, Initial residual = 6.58917e-07, Final residual = 4.62817e-11, No Iterations 3
ExecutionTime = 8.44 s  ClockTime = 11 s

Time = 209

DILUPBiCGStab:  Solving for omega, Initial residual = 6.46932e-07, Final residual = 4.55839e-11, No Iterations 3
ExecutionTime = 8.47 s  ClockTime = 11 s

Time = 210

DILUPBiCGStab:  Solving for omega, Initial residual = 6.35137e-07, Final residual = 4.48942e-11, No Iterations 3
ExecutionTime = 8.51 s  ClockTime = 11 s

Time = 211

DILUPBiCGStab:  Solving for omega, Initial residual = 6.23531e-07, Final residual = 4.42127e-11, No Iterations 3
ExecutionTime = 8.55 s  ClockTime = 11 s

Time = 212

DILUPBiCGStab:  Solving for omega, Initial residual = 6.12112e-07, Final residual = 4.35395e-11, No Iterations 3
ExecutionTime = 8.58 s  ClockTime = 11 s

Time = 213

DILUPBiCGStab:  Solving for omega, Initial residual = 6.00877e-07, Final residual = 4.28745e-11, No Iterations 3
ExecutionTime = 8.62 s  ClockTime = 11 s

Time = 214

DILUPBiCGStab:  Solving for omega, Initial residual = 5.89823e-07, Final residual = 4.22182e-11, No Iterations 3
ExecutionTime = 8.66 s  ClockTime = 11 s

Time = 215

DILUPBiCGStab:  Solving for omega, Initial residual = 5.7895e-07, Final residual = 4.15746e-11, No Iterations 3
ExecutionTime = 8.69 s  ClockTime = 11 s

Time = 216

DILUPBiCGStab:  Solving for omega, Initial residual = 5.68255e-07, Final residual = 4.0936e-11, No Iterations 3
ExecutionTime = 8.73 s  ClockTime = 11 s

Time = 217

DILUPBiCGStab:  Solving for omega, Initial residual = 5.57735e-07, Final residual = 4.02936e-11, No Iterations 3
ExecutionTime = 8.77 s  ClockTime = 11 s

Time = 218

DILUPBiCGStab:  Solving for omega, Initial residual = 5.47388e-07, Final residual = 3.96693e-11, No Iterations 3
ExecutionTime = 8.79 s  ClockTime = 11 s

Time = 219

DILUPBiCGStab:  Solving for omega, Initial residual = 5.37213e-07, Final residual = 3.90503e-11, No Iterations 3
ExecutionTime = 8.82 s  ClockTime = 11 s

Time = 220

DILUPBiCGStab:  Solving for omega, Initial residual = 5.27207e-07, Final residual = 3.84393e-11, No Iterations 3
ExecutionTime = 8.85 s  ClockTime = 11 s

Time = 221

DILUPBiCGStab:  Solving for omega, Initial residual = 5.17367e-07, Final residual = 3.78361e-11, No Iterations 3
ExecutionTime = 8.88 s  ClockTime = 11 s

Time = 222

DILUPBiCGStab:  Solving for omega, Initial residual = 5.07693e-07, Final residual = 3.72408e-11, No Iterations 3
ExecutionTime = 8.91 s  ClockTime = 12 s

Time = 223

DILUPBiCGStab:  Solving for omega, Initial residual = 4.98182e-07, Final residual = 3.66534e-11, No Iterations 3
ExecutionTime = 8.94 s  ClockTime = 12 s

Time = 224

DILUPBiCGStab:  Solving for omega, Initial residual = 4.88831e-07, Final residual = 3.60738e-11, No Iterations 3
ExecutionTime = 8.98 s  ClockTime = 12 s

Time = 225

DILUPBiCGStab:  Solving for omega, Initial residual = 4.79638e-07, Final residual = 3.5502e-11, No Iterations 3
ExecutionTime = 9.02 s  ClockTime = 12 s

Time = 226

DILUPBiCGStab:  Solving for omega, Initial residual = 4.70602e-07, Final residual = 3.49378e-11, No Iterations 3
ExecutionTime = 9.05 s  ClockTime = 12 s

Time = 227

DILUPBiCGStab:  Solving for omega, Initial residual = 4.6172e-07, Final residual = 9.86791e-11, No Iterations 3
ExecutionTime = 9.08 s  ClockTime = 12 s

Time = 228

DILUPBiCGStab:  Solving for omega, Initial residual = 4.52992e-07, Final residual = 9.53667e-11, No Iterations 3
ExecutionTime = 9.11 s  ClockTime = 12 s

Time = 229

DILUPBiCGStab:  Solving for omega, Initial residual = 4.44413e-07, Final residual = 9.40753e-11, No Iterations 3
ExecutionTime = 9.14 s  ClockTime = 12 s

Time = 230

DILUPBiCGStab:  Solving for omega, Initial residual = 4.35982e-07, Final residual = 9.20598e-11, No Iterations 3
ExecutionTime = 9.17 s  ClockTime = 12 s

Time = 231

DILUPBiCGStab:  Solving for omega, Initial residual = 4.27697e-07, Final residual = 9.08361e-11, No Iterations 3
ExecutionTime = 9.2 s  ClockTime = 12 s

Time = 232

DILUPBiCGStab:  Solving for omega, Initial residual = 4.19556e-07, Final residual = 8.89069e-11, No Iterations 3
ExecutionTime = 9.23 s  ClockTime = 12 s

Time = 233

DILUPBiCGStab:  Solving for omega, Initial residual = 4.11557e-07, Final residual = 8.77377e-11, No Iterations 3
ExecutionTime = 9.26 s  ClockTime = 12 s

Time = 234

DILUPBiCGStab:  Solving for omega, Initial residual = 4.03697e-07, Final residual = 8.588e-11, No Iterations 3
ExecutionTime = 9.3 s  ClockTime = 12 s

Time = 235

DILUPBiCGStab:  Solving for omega, Initial residual = 3.95976e-07, Final residual = 8.47527e-11, No Iterations 3
ExecutionTime = 9.33 s  ClockTime = 12 s

Time = 236

DILUPBiCGStab:  Solving for omega, Initial residual = 3.8839e-07, Final residual = 8.29163e-11, No Iterations 3
ExecutionTime = 9.35 s  ClockTime = 12 s

Time = 237

DILUPBiCGStab:  Solving for omega, Initial residual = 3.80938e-07, Final residual = 8.18287e-11, No Iterations 3
ExecutionTime = 9.38 s  ClockTime = 12 s

Time = 238

DILUPBiCGStab:  Solving for omega, Initial residual = 3.73618e-07, Final residual = 8.00678e-11, No Iterations 3
ExecutionTime = 9.41 s  ClockTime = 12 s

Time = 239

DILUPBiCGStab:  Solving for omega, Initial residual = 3.66428e-07, Final residual = 7.89643e-11, No Iterations 3
ExecutionTime = 9.44 s  ClockTime = 12 s

Time = 240

DILUPBiCGStab:  Solving for omega, Initial residual = 3.59366e-07, Final residual = 7.72788e-11, No Iterations 3
ExecutionTime = 9.48 s  ClockTime = 12 s

Time = 241

DILUPBiCGStab:  Solving for omega, Initial residual = 3.5243e-07, Final residual = 7.62044e-11, No Iterations 3
ExecutionTime = 9.51 s  ClockTime = 12 s

Time = 242

DILUPBiCGStab:  Solving for omega, Initial residual = 3.45618e-07, Final residual = 7.45858e-11, No Iterations 3
ExecutionTime = 9.55 s  ClockTime = 12 s

Time = 243

DILUPBiCGStab:  Solving for omega, Initial residual = 3.38928e-07, Final residual = 7.35252e-11, No Iterations 3
ExecutionTime = 9.58 s  ClockTime = 12 s

Time = 244

DILUPBiCGStab:  Solving for omega, Initial residual = 3.32359e-07, Final residual = 7.19691e-11, No Iterations 3
ExecutionTime = 9.62 s  ClockTime = 12 s

Time = 245

DILUPBiCGStab:  Solving for omega, Initial residual = 3.25909e-07, Final residual = 7.09261e-11, No Iterations 3
ExecutionTime = 9.66 s  ClockTime = 12 s

Time = 246

DILUPBiCGStab:  Solving for omega, Initial residual = 3.19575e-07, Final residual = 6.9431e-11, No Iterations 3
ExecutionTime = 9.69 s  ClockTime = 12 s

Time = 247

DILUPBiCGStab:  Solving for omega, Initial residual = 3.13357e-07, Final residual = 6.84045e-11, No Iterations 3
ExecutionTime = 9.72 s  ClockTime = 12 s

Time = 248

DILUPBiCGStab:  Solving for omega, Initial residual = 3.07251e-07, Final residual = 6.69623e-11, No Iterations 3
ExecutionTime = 9.75 s  ClockTime = 13 s

Time = 249

DILUPBiCGStab:  Solving for omega, Initial residual = 3.01257e-07, Final residual = 6.59576e-11, No Iterations 3
ExecutionTime = 9.78 s  ClockTime = 13 s

Time = 250

DILUPBiCGStab:  Solving for omega, Initial residual = 2.95373e-07, Final residual = 6.45682e-11, No Iterations 3
ExecutionTime = 9.82 s  ClockTime = 13 s

Time = 251

DILUPBiCGStab:  Solving for omega, Initial residual = 2.89596e-07, Final residual = 6.35861e-11, No Iterations 3
ExecutionTime = 9.85 s  ClockTime = 13 s

Time = 252

DILUPBiCGStab:  Solving for omega, Initial residual = 2.83926e-07, Final residual = 6.2247e-11, No Iterations 3
ExecutionTime = 9.88 s  ClockTime = 13 s

Time = 253

DILUPBiCGStab:  Solving for omega, Initial residual = 2.7836e-07, Final residual = 6.12882e-11, No Iterations 3
ExecutionTime = 9.93 s  ClockTime = 13 s

Time = 254

DILUPBiCGStab:  Solving for omega, Initial residual = 2.72896e-07, Final residual = 5.99969e-11, No Iterations 3
ExecutionTime = 9.96 s  ClockTime = 13 s

Time = 255

DILUPBiCGStab:  Solving for omega, Initial residual = 2.67534e-07, Final residual = 5.90628e-11, No Iterations 3
ExecutionTime = 9.99 s  ClockTime = 13 s

Time = 256

DILUPBiCGStab:  Solving for omega, Initial residual = 2.62272e-07, Final residual = 5.78166e-11, No Iterations 3
ExecutionTime = 10.03 s  ClockTime = 13 s

Time = 257

DILUPBiCGStab:  Solving for omega, Initial residual = 2.57107e-07, Final residual = 5.69077e-11, No Iterations 3
ExecutionTime = 10.06 s  ClockTime = 13 s

Time = 258

DILUPBiCGStab:  Solving for omega, Initial residual = 2.52038e-07, Final residual = 5.57048e-11, No Iterations 3
ExecutionTime = 10.09 s  ClockTime = 13 s

Time = 259

DILUPBiCGStab:  Solving for omega, Initial residual = 2.47064e-07, Final residual = 5.48212e-11, No Iterations 3
ExecutionTime = 10.13 s  ClockTime = 13 s

Time = 260

DILUPBiCGStab:  Solving for omega, Initial residual = 2.42183e-07, Final residual = 5.36612e-11, No Iterations 3
ExecutionTime = 10.16 s  ClockTime = 13 s

Time = 261

DILUPBiCGStab:  Solving for omega, Initial residual = 2.37394e-07, Final residual = 5.28038e-11, No Iterations 3
ExecutionTime = 10.19 s  ClockTime = 13 s

Time = 262

DILUPBiCGStab:  Solving for omega, Initial residual = 2.32694e-07, Final residual = 5.1684e-11, No Iterations 3
ExecutionTime = 10.22 s  ClockTime = 13 s

Time = 263

DILUPBiCGStab:  Solving for omega, Initial residual = 2.28083e-07, Final residual = 5.0852e-11, No Iterations 3
ExecutionTime = 10.25 s  ClockTime = 13 s

Time = 264

DILUPBiCGStab:  Solving for omega, Initial residual = 2.23559e-07, Final residual = 4.97707e-11, No Iterations 3
ExecutionTime = 10.28 s  ClockTime = 13 s

Time = 265

DILUPBiCGStab:  Solving for omega, Initial residual = 2.19121e-07, Final residual = 4.89642e-11, No Iterations 3
ExecutionTime = 10.31 s  ClockTime = 13 s

Time = 266

DILUPBiCGStab:  Solving for omega, Initial residual = 2.14766e-07, Final residual = 4.79207e-11, No Iterations 3
ExecutionTime = 10.34 s  ClockTime = 13 s

Time = 267

DILUPBiCGStab:  Solving for omega, Initial residual = 2.10495e-07, Final residual = 4.71393e-11, No Iterations 3
ExecutionTime = 10.37 s  ClockTime = 13 s

Time = 268

DILUPBiCGStab:  Solving for omega, Initial residual = 2.06304e-07, Final residual = 4.61315e-11, No Iterations 3
ExecutionTime = 10.42 s  ClockTime = 13 s

Time = 269

DILUPBiCGStab:  Solving for omega, Initial residual = 2.02193e-07, Final residual = 4.53753e-11, No Iterations 3
ExecutionTime = 10.45 s  ClockTime = 13 s

Time = 270

DILUPBiCGStab:  Solving for omega, Initial residual = 1.9816e-07, Final residual = 4.44024e-11, No Iterations 3
ExecutionTime = 10.48 s  ClockTime = 13 s

Time = 271

DILUPBiCGStab:  Solving for omega, Initial residual = 1.94205e-07, Final residual = 4.36704e-11, No Iterations 3
ExecutionTime = 10.51 s  ClockTime = 13 s

Time = 272

DILUPBiCGStab:  Solving for omega, Initial residual = 1.90325e-07, Final residual = 4.27311e-11, No Iterations 3
ExecutionTime = 10.55 s  ClockTime = 14 s

Time = 273

DILUPBiCGStab:  Solving for omega, Initial residual = 1.8652e-07, Final residual = 4.20237e-11, No Iterations 3
ExecutionTime = 10.58 s  ClockTime = 14 s

Time = 274

DILUPBiCGStab:  Solving for omega, Initial residual = 1.82787e-07, Final residual = 4.11173e-11, No Iterations 3
ExecutionTime = 10.61 s  ClockTime = 14 s

Time = 275

DILUPBiCGStab:  Solving for omega, Initial residual = 1.79127e-07, Final residual = 4.0434e-11, No Iterations 3
ExecutionTime = 10.66 s  ClockTime = 14 s

Time = 276

DILUPBiCGStab:  Solving for omega, Initial residual = 1.75537e-07, Final residual = 3.9559e-11, No Iterations 3
ExecutionTime = 10.68 s  ClockTime = 14 s

Time = 277

DILUPBiCGStab:  Solving for omega, Initial residual = 1.72016e-07, Final residual = 3.88989e-11, No Iterations 3
ExecutionTime = 10.71 s  ClockTime = 14 s

Time = 278

DILUPBiCGStab:  Solving for omega, Initial residual = 1.68563e-07, Final residual = 3.80544e-11, No Iterations 3
ExecutionTime = 10.74 s  ClockTime = 14 s

Time = 279

DILUPBiCGStab:  Solving for omega, Initial residual = 1.65177e-07, Final residual = 3.74172e-11, No Iterations 3
ExecutionTime = 10.77 s  ClockTime = 14 s

Time = 280

DILUPBiCGStab:  Solving for omega, Initial residual = 1.61856e-07, Final residual = 3.66037e-11, No Iterations 3
ExecutionTime = 10.88 s  ClockTime = 14 s

Time = 281

DILUPBiCGStab:  Solving for omega, Initial residual = 1.586e-07, Final residual = 3.59872e-11, No Iterations 3
ExecutionTime = 10.92 s  ClockTime = 14 s

Time = 282

DILUPBiCGStab:  Solving for omega, Initial residual = 1.55408e-07, Final residual = 3.52038e-11, No Iterations 3
ExecutionTime = 10.95 s  ClockTime = 14 s

Time = 283

DILUPBiCGStab:  Solving for omega, Initial residual = 1.52277e-07, Final residual = 3.46076e-11, No Iterations 3
ExecutionTime = 10.98 s  ClockTime = 14 s

Time = 284

DILUPBiCGStab:  Solving for omega, Initial residual = 1.49207e-07, Final residual = 3.38533e-11, No Iterations 3
ExecutionTime = 11.02 s  ClockTime = 14 s

Time = 285

DILUPBiCGStab:  Solving for omega, Initial residual = 1.46198e-07, Final residual = 3.3277e-11, No Iterations 3
ExecutionTime = 11.05 s  ClockTime = 14 s

Time = 286

DILUPBiCGStab:  Solving for omega, Initial residual = 1.43247e-07, Final residual = 3.25506e-11, No Iterations 3
ExecutionTime = 11.09 s  ClockTime = 14 s

Time = 287

DILUPBiCGStab:  Solving for omega, Initial residual = 1.40354e-07, Final residual = 3.19939e-11, No Iterations 3
ExecutionTime = 11.13 s  ClockTime = 14 s

Time = 288

DILUPBiCGStab:  Solving for omega, Initial residual = 1.37517e-07, Final residual = 3.12944e-11, No Iterations 3
ExecutionTime = 11.17 s  ClockTime = 14 s

Time = 289

DILUPBiCGStab:  Solving for omega, Initial residual = 1.34736e-07, Final residual = 3.0757e-11, No Iterations 3
ExecutionTime = 11.2 s  ClockTime = 14 s

Time = 290

DILUPBiCGStab:  Solving for omega, Initial residual = 1.3201e-07, Final residual = 3.00833e-11, No Iterations 3
ExecutionTime = 11.24 s  ClockTime = 14 s

Time = 291

DILUPBiCGStab:  Solving for omega, Initial residual = 1.29337e-07, Final residual = 2.95647e-11, No Iterations 3
ExecutionTime = 11.27 s  ClockTime = 14 s

Time = 292

DILUPBiCGStab:  Solving for omega, Initial residual = 1.26717e-07, Final residual = 2.89161e-11, No Iterations 3
ExecutionTime = 11.3 s  ClockTime = 14 s

Time = 293

DILUPBiCGStab:  Solving for omega, Initial residual = 1.24149e-07, Final residual = 2.84158e-11, No Iterations 3
ExecutionTime = 11.33 s  ClockTime = 14 s

Time = 294

DILUPBiCGStab:  Solving for omega, Initial residual = 1.21631e-07, Final residual = 2.77913e-11, No Iterations 3
ExecutionTime = 11.37 s  ClockTime = 14 s

Time = 295

DILUPBiCGStab:  Solving for omega, Initial residual = 1.19163e-07, Final residual = 2.73093e-11, No Iterations 3
ExecutionTime = 11.4 s  ClockTime = 14 s

Time = 296

DILUPBiCGStab:  Solving for omega, Initial residual = 1.16744e-07, Final residual = 2.67083e-11, No Iterations 3
ExecutionTime = 11.43 s  ClockTime = 15 s

Time = 297

DILUPBiCGStab:  Solving for omega, Initial residual = 1.14373e-07, Final residual = 2.62436e-11, No Iterations 3
ExecutionTime = 11.46 s  ClockTime = 15 s

Time = 298

DILUPBiCGStab:  Solving for omega, Initial residual = 1.12048e-07, Final residual = 2.56648e-11, No Iterations 3
ExecutionTime = 11.49 s  ClockTime = 15 s

Time = 299

DILUPBiCGStab:  Solving for omega, Initial residual = 1.0977e-07, Final residual = 2.52171e-11, No Iterations 3
ExecutionTime = 11.52 s  ClockTime = 15 s

Time = 300

DILUPBiCGStab:  Solving for omega, Initial residual = 1.07537e-07, Final residual = 2.46599e-11, No Iterations 3
ExecutionTime = 11.55 s  ClockTime = 15 s

Time = 301

DILUPBiCGStab:  Solving for omega, Initial residual = 1.05349e-07, Final residual = 2.42286e-11, No Iterations 3
ExecutionTime = 11.58 s  ClockTime = 15 s

Time = 302

DILUPBiCGStab:  Solving for omega, Initial residual = 1.03204e-07, Final residual = 2.36922e-11, No Iterations 3
ExecutionTime = 11.61 s  ClockTime = 15 s

Time = 303

DILUPBiCGStab:  Solving for omega, Initial residual = 1.01101e-07, Final residual = 2.32769e-11, No Iterations 3
ExecutionTime = 11.64 s  ClockTime = 15 s

Time = 304

DILUPBiCGStab:  Solving for omega, Initial residual = 9.90408e-08, Final residual = 2.27604e-11, No Iterations 3
ExecutionTime = 11.68 s  ClockTime = 15 s

Time = 305

DILUPBiCGStab:  Solving for omega, Initial residual = 9.70214e-08, Final residual = 9.85648e-11, No Iterations 2
ExecutionTime = 11.71 s  ClockTime = 15 s

Time = 306

DILUPBiCGStab:  Solving for omega, Initial residual = 9.50447e-08, Final residual = 9.61895e-11, No Iterations 2
ExecutionTime = 11.75 s  ClockTime = 15 s

Time = 307

DILUPBiCGStab:  Solving for omega, Initial residual = 9.31075e-08, Final residual = 9.35498e-11, No Iterations 2
ExecutionTime = 11.79 s  ClockTime = 15 s

Time = 308

DILUPBiCGStab:  Solving for omega, Initial residual = 9.1209e-08, Final residual = 9.07041e-11, No Iterations 2
ExecutionTime = 11.82 s  ClockTime = 15 s

Time = 309

DILUPBiCGStab:  Solving for omega, Initial residual = 8.93484e-08, Final residual = 8.78373e-11, No Iterations 2
ExecutionTime = 11.85 s  ClockTime = 15 s

Time = 310

DILUPBiCGStab:  Solving for omega, Initial residual = 8.75251e-08, Final residual = 8.51854e-11, No Iterations 2
ExecutionTime = 11.88 s  ClockTime = 15 s

Time = 311

DILUPBiCGStab:  Solving for omega, Initial residual = 8.57384e-08, Final residual = 8.28638e-11, No Iterations 2
ExecutionTime = 11.92 s  ClockTime = 15 s

Time = 312

DILUPBiCGStab:  Solving for omega, Initial residual = 8.39875e-08, Final residual = 8.08553e-11, No Iterations 2
ExecutionTime = 11.95 s  ClockTime = 15 s

Time = 313

DILUPBiCGStab:  Solving for omega, Initial residual = 8.22718e-08, Final residual = 7.90667e-11, No Iterations 2
ExecutionTime = 11.98 s  ClockTime = 15 s

Time = 314

DILUPBiCGStab:  Solving for omega, Initial residual = 8.05904e-08, Final residual = 7.74081e-11, No Iterations 2
ExecutionTime = 12.02 s  ClockTime = 15 s

Time = 315

DILUPBiCGStab:  Solving for omega, Initial residual = 7.89428e-08, Final residual = 7.58268e-11, No Iterations 2
ExecutionTime = 12.05 s  ClockTime = 15 s

Time = 316

DILUPBiCGStab:  Solving for omega, Initial residual = 7.73283e-08, Final residual = 7.42971e-11, No Iterations 2
ExecutionTime = 12.08 s  ClockTime = 15 s

Time = 317

DILUPBiCGStab:  Solving for omega, Initial residual = 7.57462e-08, Final residual = 7.28046e-11, No Iterations 2
ExecutionTime = 12.11 s  ClockTime = 15 s

Time = 318

DILUPBiCGStab:  Solving for omega, Initial residual = 7.41959e-08, Final residual = 7.13442e-11, No Iterations 2
ExecutionTime = 12.14 s  ClockTime = 15 s

Time = 319

DILUPBiCGStab:  Solving for omega, Initial residual = 7.26769e-08, Final residual = 6.99136e-11, No Iterations 2
ExecutionTime = 12.17 s  ClockTime = 15 s

Time = 320

DILUPBiCGStab:  Solving for omega, Initial residual = 7.11884e-08, Final residual = 6.85115e-11, No Iterations 2
ExecutionTime = 12.2 s  ClockTime = 15 s

Time = 321

DILUPBiCGStab:  Solving for omega, Initial residual = 6.97299e-08, Final residual = 6.71366e-11, No Iterations 2
ExecutionTime = 12.23 s  ClockTime = 15 s

Time = 322

DILUPBiCGStab:  Solving for omega, Initial residual = 6.83009e-08, Final residual = 6.57885e-11, No Iterations 2
ExecutionTime = 12.25 s  ClockTime = 15 s

Time = 323

DILUPBiCGStab:  Solving for omega, Initial residual = 6.69007e-08, Final residual = 6.44673e-11, No Iterations 2
ExecutionTime = 12.29 s  ClockTime = 16 s

Time = 324

DILUPBiCGStab:  Solving for omega, Initial residual = 6.55287e-08, Final residual = 6.31718e-11, No Iterations 2
ExecutionTime = 12.33 s  ClockTime = 16 s

Time = 325

DILUPBiCGStab:  Solving for omega, Initial residual = 6.41846e-08, Final residual = 6.19015e-11, No Iterations 2
ExecutionTime = 12.37 s  ClockTime = 16 s

Time = 326

DILUPBiCGStab:  Solving for omega, Initial residual = 6.28675e-08, Final residual = 6.06559e-11, No Iterations 2
ExecutionTime = 12.4 s  ClockTime = 16 s

Time = 327

DILUPBiCGStab:  Solving for omega, Initial residual = 6.15772e-08, Final residual = 5.94347e-11, No Iterations 2
ExecutionTime = 12.44 s  ClockTime = 16 s

Time = 328

DILUPBiCGStab:  Solving for omega, Initial residual = 6.03129e-08, Final residual = 5.82373e-11, No Iterations 2
ExecutionTime = 12.47 s  ClockTime = 16 s

Time = 329

DILUPBiCGStab:  Solving for omega, Initial residual = 5.90743e-08, Final residual = 5.70634e-11, No Iterations 2
ExecutionTime = 12.5 s  ClockTime = 16 s

Time = 330

DILUPBiCGStab:  Solving for omega, Initial residual = 5.78608e-08, Final residual = 5.59125e-11, No Iterations 2
ExecutionTime = 12.53 s  ClockTime = 16 s

Time = 331

DILUPBiCGStab:  Solving for omega, Initial residual = 5.66719e-08, Final residual = 5.47843e-11, No Iterations 2
ExecutionTime = 12.56 s  ClockTime = 16 s

Time = 332

DILUPBiCGStab:  Solving for omega, Initial residual = 5.55072e-08, Final residual = 5.36782e-11, No Iterations 2
ExecutionTime = 12.59 s  ClockTime = 16 s

Time = 333

DILUPBiCGStab:  Solving for omega, Initial residual = 5.43661e-08, Final residual = 5.25938e-11, No Iterations 2
ExecutionTime = 12.63 s  ClockTime = 16 s

Time = 334

DILUPBiCGStab:  Solving for omega, Initial residual = 5.32482e-08, Final residual = 5.15308e-11, No Iterations 2
ExecutionTime = 12.65 s  ClockTime = 16 s

Time = 335

DILUPBiCGStab:  Solving for omega, Initial residual = 5.2153e-08, Final residual = 5.04888e-11, No Iterations 2
ExecutionTime = 12.68 s  ClockTime = 16 s

Time = 336

DILUPBiCGStab:  Solving for omega, Initial residual = 5.10801e-08, Final residual = 4.94673e-11, No Iterations 2
ExecutionTime = 12.71 s  ClockTime = 16 s

Time = 337

DILUPBiCGStab:  Solving for omega, Initial residual = 5.0029e-08, Final residual = 4.84659e-11, No Iterations 2
ExecutionTime = 12.74 s  ClockTime = 16 s

Time = 338

DILUPBiCGStab:  Solving for omega, Initial residual = 4.89993e-08, Final residual = 4.74843e-11, No Iterations 2
ExecutionTime = 12.77 s  ClockTime = 16 s

Time = 339

DILUPBiCGStab:  Solving for omega, Initial residual = 4.79906e-08, Final residual = 4.6522e-11, No Iterations 2
ExecutionTime = 12.8 s  ClockTime = 16 s

Time = 340

DILUPBiCGStab:  Solving for omega, Initial residual = 4.70025e-08, Final residual = 4.55788e-11, No Iterations 2
ExecutionTime = 12.84 s  ClockTime = 16 s

Time = 341

DILUPBiCGStab:  Solving for omega, Initial residual = 4.60345e-08, Final residual = 4.46544e-11, No Iterations 2
ExecutionTime = 12.87 s  ClockTime = 16 s

Time = 342

DILUPBiCGStab:  Solving for omega, Initial residual = 4.50862e-08, Final residual = 4.37482e-11, No Iterations 2
ExecutionTime = 12.9 s  ClockTime = 16 s

Time = 343

DILUPBiCGStab:  Solving for omega, Initial residual = 4.41573e-08, Final residual = 4.28601e-11, No Iterations 2
ExecutionTime = 12.93 s  ClockTime = 16 s

Time = 344

DILUPBiCGStab:  Solving for omega, Initial residual = 4.32474e-08, Final residual = 4.19897e-11, No Iterations 2
ExecutionTime = 12.97 s  ClockTime = 16 s

Time = 345

DILUPBiCGStab:  Solving for omega, Initial residual = 4.2356e-08, Final residual = 4.1137e-11, No Iterations 2
ExecutionTime = 13 s  ClockTime = 16 s

Time = 346

DILUPBiCGStab:  Solving for omega, Initial residual = 4.14829e-08, Final residual = 4.03011e-11, No Iterations 2
ExecutionTime = 13.02 s  ClockTime = 16 s

Time = 347

DILUPBiCGStab:  Solving for omega, Initial residual = 4.06276e-08, Final residual = 3.94818e-11, No Iterations 2
ExecutionTime = 13.05 s  ClockTime = 16 s

Time = 348

DILUPBiCGStab:  Solving for omega, Initial residual = 3.97898e-08, Final residual = 3.86789e-11, No Iterations 2
ExecutionTime = 13.16 s  ClockTime = 17 s

Time = 349

DILUPBiCGStab:  Solving for omega, Initial residual = 3.89692e-08, Final residual = 3.78919e-11, No Iterations 2
ExecutionTime = 13.19 s  ClockTime = 17 s

Time = 350

DILUPBiCGStab:  Solving for omega, Initial residual = 3.81653e-08, Final residual = 3.71206e-11, No Iterations 2
ExecutionTime = 13.23 s  ClockTime = 17 s

Time = 351

DILUPBiCGStab:  Solving for omega, Initial residual = 3.73779e-08, Final residual = 3.63647e-11, No Iterations 2
ExecutionTime = 13.26 s  ClockTime = 17 s

Time = 352

DILUPBiCGStab:  Solving for omega, Initial residual = 3.66066e-08, Final residual = 3.5624e-11, No Iterations 2
ExecutionTime = 13.3 s  ClockTime = 17 s

Time = 353

DILUPBiCGStab:  Solving for omega, Initial residual = 3.58511e-08, Final residual = 3.48981e-11, No Iterations 2
ExecutionTime = 13.33 s  ClockTime = 17 s

Time = 354

DILUPBiCGStab:  Solving for omega, Initial residual = 3.51111e-08, Final residual = 3.41868e-11, No Iterations 2
ExecutionTime = 13.36 s  ClockTime = 17 s

Time = 355

DILUPBiCGStab:  Solving for omega, Initial residual = 3.43863e-08, Final residual = 3.34897e-11, No Iterations 2
ExecutionTime = 13.39 s  ClockTime = 17 s

Time = 356

DILUPBiCGStab:  Solving for omega, Initial residual = 3.36763e-08, Final residual = 3.28066e-11, No Iterations 2
ExecutionTime = 13.41 s  ClockTime = 17 s

Time = 357

DILUPBiCGStab:  Solving for omega, Initial residual = 3.29809e-08, Final residual = 3.21373e-11, No Iterations 2
ExecutionTime = 13.44 s  ClockTime = 17 s

Time = 358

DILUPBiCGStab:  Solving for omega, Initial residual = 3.22998e-08, Final residual = 3.14813e-11, No Iterations 2
ExecutionTime = 13.47 s  ClockTime = 17 s

Time = 359

DILUPBiCGStab:  Solving for omega, Initial residual = 3.16326e-08, Final residual = 3.08386e-11, No Iterations 2
ExecutionTime = 13.51 s  ClockTime = 17 s

Time = 360

DILUPBiCGStab:  Solving for omega, Initial residual = 3.09792e-08, Final residual = 3.02088e-11, No Iterations 2
ExecutionTime = 13.54 s  ClockTime = 17 s

Time = 361

DILUPBiCGStab:  Solving for omega, Initial residual = 3.03391e-08, Final residual = 2.95916e-11, No Iterations 2
ExecutionTime = 13.57 s  ClockTime = 17 s

Time = 362

DILUPBiCGStab:  Solving for omega, Initial residual = 2.97123e-08, Final residual = 2.89869e-11, No Iterations 2
ExecutionTime = 13.6 s  ClockTime = 17 s

Time = 363

DILUPBiCGStab:  Solving for omega, Initial residual = 2.90982e-08, Final residual = 2.83944e-11, No Iterations 2
ExecutionTime = 13.63 s  ClockTime = 17 s

Time = 364

DILUPBiCGStab:  Solving for omega, Initial residual = 2.84969e-08, Final residual = 2.78138e-11, No Iterations 2
ExecutionTime = 13.66 s  ClockTime = 17 s

Time = 365

DILUPBiCGStab:  Solving for omega, Initial residual = 2.79078e-08, Final residual = 2.7245e-11, No Iterations 2
ExecutionTime = 13.69 s  ClockTime = 17 s

Time = 366

DILUPBiCGStab:  Solving for omega, Initial residual = 2.73309e-08, Final residual = 2.66876e-11, No Iterations 2
ExecutionTime = 13.72 s  ClockTime = 17 s

Time = 367

DILUPBiCGStab:  Solving for omega, Initial residual = 2.67659e-08, Final residual = 2.61414e-11, No Iterations 2
ExecutionTime = 13.76 s  ClockTime = 17 s

Time = 368

DILUPBiCGStab:  Solving for omega, Initial residual = 2.62125e-08, Final residual = 2.56063e-11, No Iterations 2
ExecutionTime = 13.8 s  ClockTime = 17 s

Time = 369

DILUPBiCGStab:  Solving for omega, Initial residual = 2.56704e-08, Final residual = 2.5082e-11, No Iterations 2
ExecutionTime = 13.84 s  ClockTime = 17 s

Time = 370

DILUPBiCGStab:  Solving for omega, Initial residual = 2.51396e-08, Final residual = 2.45683e-11, No Iterations 2
ExecutionTime = 13.88 s  ClockTime = 17 s

Time = 371

DILUPBiCGStab:  Solving for omega, Initial residual = 2.46196e-08, Final residual = 2.4065e-11, No Iterations 2
ExecutionTime = 13.93 s  ClockTime = 17 s

Time = 372

DILUPBiCGStab:  Solving for omega, Initial residual = 2.41104e-08, Final residual = 9.93965e-11, No Iterations 2
ExecutionTime = 13.95 s  ClockTime = 17 s

Time = 373

DILUPBiCGStab:  Solving for omega, Initial residual = 2.36127e-08, Final residual = 9.70526e-11, No Iterations 2
ExecutionTime = 13.98 s  ClockTime = 18 s

Time = 374

DILUPBiCGStab:  Solving for omega, Initial residual = 2.31252e-08, Final residual = 9.50535e-11, No Iterations 2
ExecutionTime = 14.01 s  ClockTime = 18 s

Time = 375

DILUPBiCGStab:  Solving for omega, Initial residual = 2.26477e-08, Final residual = 9.30052e-11, No Iterations 2
ExecutionTime = 14.05 s  ClockTime = 18 s

Time = 376

DILUPBiCGStab:  Solving for omega, Initial residual = 2.218e-08, Final residual = 9.11455e-11, No Iterations 2
ExecutionTime = 14.09 s  ClockTime = 18 s

Time = 377

DILUPBiCGStab:  Solving for omega, Initial residual = 2.17218e-08, Final residual = 8.92174e-11, No Iterations 2
ExecutionTime = 14.12 s  ClockTime = 18 s

Time = 378

DILUPBiCGStab:  Solving for omega, Initial residual = 2.12731e-08, Final residual = 8.74407e-11, No Iterations 2
ExecutionTime = 14.15 s  ClockTime = 18 s

Time = 379

DILUPBiCGStab:  Solving for omega, Initial residual = 2.08335e-08, Final residual = 8.56396e-11, No Iterations 2
ExecutionTime = 14.17 s  ClockTime = 18 s

Time = 380

DILUPBiCGStab:  Solving for omega, Initial residual = 2.0403e-08, Final residual = 8.39e-11, No Iterations 2
ExecutionTime = 14.2 s  ClockTime = 18 s

Time = 381

DILUPBiCGStab:  Solving for omega, Initial residual = 1.99813e-08, Final residual = 8.22012e-11, No Iterations 2
ExecutionTime = 14.24 s  ClockTime = 18 s

Time = 382

DILUPBiCGStab:  Solving for omega, Initial residual = 1.95683e-08, Final residual = 8.05299e-11, No Iterations 2
ExecutionTime = 14.27 s  ClockTime = 18 s

Time = 383

DILUPBiCGStab:  Solving for omega, Initial residual = 1.91638e-08, Final residual = 7.8896e-11, No Iterations 2
ExecutionTime = 14.3 s  ClockTime = 18 s

Time = 384

DILUPBiCGStab:  Solving for omega, Initial residual = 1.87676e-08, Final residual = 7.72903e-11, No Iterations 2
ExecutionTime = 14.34 s  ClockTime = 18 s

Time = 385

DILUPBiCGStab:  Solving for omega, Initial residual = 1.83796e-08, Final residual = 7.57193e-11, No Iterations 2
ExecutionTime = 14.37 s  ClockTime = 18 s

Time = 386

DILUPBiCGStab:  Solving for omega, Initial residual = 1.79996e-08, Final residual = 7.41767e-11, No Iterations 2
ExecutionTime = 14.41 s  ClockTime = 18 s

Time = 387

DILUPBiCGStab:  Solving for omega, Initial residual = 1.76273e-08, Final residual = 7.26667e-11, No Iterations 2
ExecutionTime = 14.44 s  ClockTime = 18 s

Time = 388

DILUPBiCGStab:  Solving for omega, Initial residual = 1.72628e-08, Final residual = 7.11849e-11, No Iterations 2
ExecutionTime = 14.48 s  ClockTime = 18 s

Time = 389

DILUPBiCGStab:  Solving for omega, Initial residual = 1.69057e-08, Final residual = 6.97338e-11, No Iterations 2
ExecutionTime = 14.51 s  ClockTime = 18 s

Time = 390

DILUPBiCGStab:  Solving for omega, Initial residual = 1.6556e-08, Final residual = 6.83104e-11, No Iterations 2
ExecutionTime = 14.54 s  ClockTime = 18 s

Time = 391

DILUPBiCGStab:  Solving for omega, Initial residual = 1.62135e-08, Final residual = 6.69163e-11, No Iterations 2
ExecutionTime = 14.58 s  ClockTime = 18 s

Time = 392

DILUPBiCGStab:  Solving for omega, Initial residual = 1.58781e-08, Final residual = 6.55492e-11, No Iterations 2
ExecutionTime = 14.61 s  ClockTime = 18 s

Time = 393

DILUPBiCGStab:  Solving for omega, Initial residual = 1.55496e-08, Final residual = 6.42101e-11, No Iterations 2
ExecutionTime = 14.63 s  ClockTime = 18 s

Time = 394

DILUPBiCGStab:  Solving for omega, Initial residual = 1.52279e-08, Final residual = 6.28972e-11, No Iterations 2
ExecutionTime = 14.66 s  ClockTime = 18 s

Time = 395

DILUPBiCGStab:  Solving for omega, Initial residual = 1.49128e-08, Final residual = 6.16109e-11, No Iterations 2
ExecutionTime = 14.69 s  ClockTime = 18 s

Time = 396

DILUPBiCGStab:  Solving for omega, Initial residual = 1.46042e-08, Final residual = 6.03501e-11, No Iterations 2
ExecutionTime = 14.72 s  ClockTime = 18 s

Time = 397

DILUPBiCGStab:  Solving for omega, Initial residual = 1.43019e-08, Final residual = 5.91149e-11, No Iterations 2
ExecutionTime = 14.75 s  ClockTime = 18 s

Time = 398

DILUPBiCGStab:  Solving for omega, Initial residual = 1.40059e-08, Final residual = 5.79043e-11, No Iterations 2
ExecutionTime = 14.78 s  ClockTime = 18 s

Time = 399

DILUPBiCGStab:  Solving for omega, Initial residual = 1.3716e-08, Final residual = 5.67182e-11, No Iterations 2
ExecutionTime = 14.81 s  ClockTime = 18 s

Time = 400

DILUPBiCGStab:  Solving for omega, Initial residual = 1.34321e-08, Final residual = 5.55558e-11, No Iterations 2
ExecutionTime = 14.84 s  ClockTime = 18 s

Time = 401

DILUPBiCGStab:  Solving for omega, Initial residual = 1.31541e-08, Final residual = 5.44169e-11, No Iterations 2
ExecutionTime = 14.87 s  ClockTime = 19 s

Time = 402

DILUPBiCGStab:  Solving for omega, Initial residual = 1.28818e-08, Final residual = 5.33009e-11, No Iterations 2
ExecutionTime = 14.91 s  ClockTime = 19 s

Time = 403

DILUPBiCGStab:  Solving for omega, Initial residual = 1.26151e-08, Final residual = 5.22075e-11, No Iterations 2
ExecutionTime = 14.94 s  ClockTime = 19 s

Time = 404

DILUPBiCGStab:  Solving for omega, Initial residual = 1.23539e-08, Final residual = 5.11361e-11, No Iterations 2
ExecutionTime = 14.97 s  ClockTime = 19 s

Time = 405

DILUPBiCGStab:  Solving for omega, Initial residual = 1.20981e-08, Final residual = 5.00864e-11, No Iterations 2
ExecutionTime = 15 s  ClockTime = 19 s

Time = 406

DILUPBiCGStab:  Solving for omega, Initial residual = 1.18476e-08, Final residual = 4.90579e-11, No Iterations 2
ExecutionTime = 15.03 s  ClockTime = 19 s

Time = 407

DILUPBiCGStab:  Solving for omega, Initial residual = 1.16023e-08, Final residual = 4.80503e-11, No Iterations 2
ExecutionTime = 15.06 s  ClockTime = 19 s

Time = 408

DILUPBiCGStab:  Solving for omega, Initial residual = 1.1362e-08, Final residual = 4.70631e-11, No Iterations 2
ExecutionTime = 15.09 s  ClockTime = 19 s

Time = 409

DILUPBiCGStab:  Solving for omega, Initial residual = 1.11268e-08, Final residual = 4.60959e-11, No Iterations 2
ExecutionTime = 15.12 s  ClockTime = 19 s

Time = 410

DILUPBiCGStab:  Solving for omega, Initial residual = 1.08963e-08, Final residual = 4.51483e-11, No Iterations 2
ExecutionTime = 15.15 s  ClockTime = 19 s

Time = 411

DILUPBiCGStab:  Solving for omega, Initial residual = 1.06707e-08, Final residual = 4.422e-11, No Iterations 2
ExecutionTime = 15.18 s  ClockTime = 19 s

Time = 412

DILUPBiCGStab:  Solving for omega, Initial residual = 1.04497e-08, Final residual = 4.33105e-11, No Iterations 2
ExecutionTime = 15.21 s  ClockTime = 19 s

Time = 413

DILUPBiCGStab:  Solving for omega, Initial residual = 1.02333e-08, Final residual = 4.24195e-11, No Iterations 2
ExecutionTime = 15.25 s  ClockTime = 19 s

Time = 414

DILUPBiCGStab:  Solving for omega, Initial residual = 1.00213e-08, Final residual = 4.15466e-11, No Iterations 2
ExecutionTime = 15.28 s  ClockTime = 19 s

Time = 415

DILUPBiCGStab:  Solving for omega, Initial residual = 9.81374e-09, Final residual = 4.06915e-11, No Iterations 2
ExecutionTime = 15.31 s  ClockTime = 19 s

Time = 416

DILUPBiCGStab:  Solving for omega, Initial residual = 9.61046e-09, Final residual = 3.98538e-11, No Iterations 2
ExecutionTime = 15.34 s  ClockTime = 19 s

Time = 417

DILUPBiCGStab:  Solving for omega, Initial residual = 9.41139e-09, Final residual = 3.90332e-11, No Iterations 2
ExecutionTime = 15.37 s  ClockTime = 19 s

Time = 418

DILUPBiCGStab:  Solving for omega, Initial residual = 9.21644e-09, Final residual = 3.82293e-11, No Iterations 2
ExecutionTime = 15.4 s  ClockTime = 19 s

Time = 419

DILUPBiCGStab:  Solving for omega, Initial residual = 9.02552e-09, Final residual = 3.74418e-11, No Iterations 2
ExecutionTime = 15.43 s  ClockTime = 19 s

Time = 420

DILUPBiCGStab:  Solving for omega, Initial residual = 8.83854e-09, Final residual = 3.66704e-11, No Iterations 2
ExecutionTime = 15.46 s  ClockTime = 19 s

Time = 421

DILUPBiCGStab:  Solving for omega, Initial residual = 8.65544e-09, Final residual = 3.59148e-11, No Iterations 2
ExecutionTime = 15.48 s  ClockTime = 19 s

Time = 422

DILUPBiCGStab:  Solving for omega, Initial residual = 8.47613e-09, Final residual = 3.51745e-11, No Iterations 2
ExecutionTime = 15.51 s  ClockTime = 19 s

Time = 423

DILUPBiCGStab:  Solving for omega, Initial residual = 8.30053e-09, Final residual = 3.44495e-11, No Iterations 2
ExecutionTime = 15.54 s  ClockTime = 19 s

Time = 424

DILUPBiCGStab:  Solving for omega, Initial residual = 8.12856e-09, Final residual = 3.37392e-11, No Iterations 2
ExecutionTime = 15.57 s  ClockTime = 19 s

Time = 425

DILUPBiCGStab:  Solving for omega, Initial residual = 7.96015e-09, Final residual = 3.30435e-11, No Iterations 2
ExecutionTime = 15.6 s  ClockTime = 19 s

Time = 426

DILUPBiCGStab:  Solving for omega, Initial residual = 7.79522e-09, Final residual = 3.2362e-11, No Iterations 2
ExecutionTime = 15.63 s  ClockTime = 19 s

Time = 427

DILUPBiCGStab:  Solving for omega, Initial residual = 7.63371e-09, Final residual = 3.16945e-11, No Iterations 2
ExecutionTime = 15.67 s  ClockTime = 19 s

Time = 428

DILUPBiCGStab:  Solving for omega, Initial residual = 7.47554e-09, Final residual = 3.10406e-11, No Iterations 2
ExecutionTime = 15.7 s  ClockTime = 19 s

Time = 429

DILUPBiCGStab:  Solving for omega, Initial residual = 7.32065e-09, Final residual = 3.04002e-11, No Iterations 2
ExecutionTime = 15.74 s  ClockTime = 19 s

Time = 430

DILUPBiCGStab:  Solving for omega, Initial residual = 7.16896e-09, Final residual = 2.97729e-11, No Iterations 2
ExecutionTime = 15.78 s  ClockTime = 20 s

Time = 431

DILUPBiCGStab:  Solving for omega, Initial residual = 7.02042e-09, Final residual = 2.91584e-11, No Iterations 2
ExecutionTime = 15.81 s  ClockTime = 20 s

Time = 432

DILUPBiCGStab:  Solving for omega, Initial residual = 6.87495e-09, Final residual = 2.85566e-11, No Iterations 2
ExecutionTime = 15.85 s  ClockTime = 20 s

Time = 433

DILUPBiCGStab:  Solving for omega, Initial residual = 6.73249e-09, Final residual = 2.79671e-11, No Iterations 2
ExecutionTime = 15.9 s  ClockTime = 20 s

Time = 434

DILUPBiCGStab:  Solving for omega, Initial residual = 6.59298e-09, Final residual = 2.73897e-11, No Iterations 2
ExecutionTime = 15.94 s  ClockTime = 20 s

Time = 435

DILUPBiCGStab:  Solving for omega, Initial residual = 6.45636e-09, Final residual = 2.68241e-11, No Iterations 2
ExecutionTime = 15.97 s  ClockTime = 20 s

Time = 436

DILUPBiCGStab:  Solving for omega, Initial residual = 6.32257e-09, Final residual = 2.62702e-11, No Iterations 2
ExecutionTime = 16.01 s  ClockTime = 20 s

Time = 437

DILUPBiCGStab:  Solving for omega, Initial residual = 6.19155e-09, Final residual = 2.57277e-11, No Iterations 2
ExecutionTime = 16.04 s  ClockTime = 20 s

Time = 438

DILUPBiCGStab:  Solving for omega, Initial residual = 6.06324e-09, Final residual = 2.51963e-11, No Iterations 2
ExecutionTime = 16.07 s  ClockTime = 20 s

Time = 439

DILUPBiCGStab:  Solving for omega, Initial residual = 5.93759e-09, Final residual = 2.46758e-11, No Iterations 2
ExecutionTime = 16.1 s  ClockTime = 20 s

Time = 440

DILUPBiCGStab:  Solving for omega, Initial residual = 5.81455e-09, Final residual = 2.41661e-11, No Iterations 2
ExecutionTime = 16.13 s  ClockTime = 20 s

Time = 441

DILUPBiCGStab:  Solving for omega, Initial residual = 5.69405e-09, Final residual = 2.36668e-11, No Iterations 2
ExecutionTime = 16.17 s  ClockTime = 20 s

Time = 442

DILUPBiCGStab:  Solving for omega, Initial residual = 5.57605e-09, Final residual = 2.31778e-11, No Iterations 2
ExecutionTime = 16.2 s  ClockTime = 20 s

Time = 443

DILUPBiCGStab:  Solving for omega, Initial residual = 5.46049e-09, Final residual = 2.26988e-11, No Iterations 2
ExecutionTime = 16.24 s  ClockTime = 20 s

Time = 444

DILUPBiCGStab:  Solving for omega, Initial residual = 5.34732e-09, Final residual = 2.22297e-11, No Iterations 2
ExecutionTime = 16.27 s  ClockTime = 20 s

Time = 445

DILUPBiCGStab:  Solving for omega, Initial residual = 5.2365e-09, Final residual = 2.17703e-11, No Iterations 2
ExecutionTime = 16.3 s  ClockTime = 20 s

Time = 446

DILUPBiCGStab:  Solving for omega, Initial residual = 5.12798e-09, Final residual = 2.13204e-11, No Iterations 2
ExecutionTime = 16.33 s  ClockTime = 20 s

Time = 447

DILUPBiCGStab:  Solving for omega, Initial residual = 5.02171e-09, Final residual = 2.08797e-11, No Iterations 2
ExecutionTime = 16.36 s  ClockTime = 20 s

Time = 448

DILUPBiCGStab:  Solving for omega, Initial residual = 4.91763e-09, Final residual = 2.0448e-11, No Iterations 2
ExecutionTime = 16.4 s  ClockTime = 20 s

Time = 449

DILUPBiCGStab:  Solving for omega, Initial residual = 4.81571e-09, Final residual = 2.00253e-11, No Iterations 2
ExecutionTime = 16.44 s  ClockTime = 20 s

Time = 450

DILUPBiCGStab:  Solving for omega, Initial residual = 4.71591e-09, Final residual = 1.96113e-11, No Iterations 2
ExecutionTime = 16.48 s  ClockTime = 20 s

Time = 451

DILUPBiCGStab:  Solving for omega, Initial residual = 4.61817e-09, Final residual = 1.92058e-11, No Iterations 2
ExecutionTime = 16.54 s  ClockTime = 20 s

Time = 452

DILUPBiCGStab:  Solving for omega, Initial residual = 4.52246e-09, Final residual = 9.84133e-11, No Iterations 1
ExecutionTime = 16.58 s  ClockTime = 20 s

Time = 453

DILUPBiCGStab:  Solving for omega, Initial residual = 4.43069e-09, Final residual = 9.66377e-11, No Iterations 1
ExecutionTime = 16.61 s  ClockTime = 20 s

Time = 454

DILUPBiCGStab:  Solving for omega, Initial residual = 4.34078e-09, Final residual = 9.48614e-11, No Iterations 1
ExecutionTime = 16.64 s  ClockTime = 21 s

Time = 455

DILUPBiCGStab:  Solving for omega, Initial residual = 4.2527e-09, Final residual = 9.30983e-11, No Iterations 1
ExecutionTime = 16.68 s  ClockTime = 21 s

Time = 456

DILUPBiCGStab:  Solving for omega, Initial residual = 4.16639e-09, Final residual = 9.13556e-11, No Iterations 1
ExecutionTime = 16.72 s  ClockTime = 21 s

Time = 457

DILUPBiCGStab:  Solving for omega, Initial residual = 4.08184e-09, Final residual = 8.9637e-11, No Iterations 1
ExecutionTime = 16.75 s  ClockTime = 21 s

Time = 458

DILUPBiCGStab:  Solving for omega, Initial residual = 3.99899e-09, Final residual = 8.79445e-11, No Iterations 1
ExecutionTime = 16.78 s  ClockTime = 21 s

Time = 459

DILUPBiCGStab:  Solving for omega, Initial residual = 3.91781e-09, Final residual = 8.62793e-11, No Iterations 1
ExecutionTime = 16.81 s  ClockTime = 21 s

Time = 460

DILUPBiCGStab:  Solving for omega, Initial residual = 3.83827e-09, Final residual = 8.46423e-11, No Iterations 1
ExecutionTime = 16.84 s  ClockTime = 21 s

Time = 461

DILUPBiCGStab:  Solving for omega, Initial residual = 3.76034e-09, Final residual = 8.30368e-11, No Iterations 1
ExecutionTime = 16.87 s  ClockTime = 21 s

Time = 462

DILUPBiCGStab:  Solving for omega, Initial residual = 3.68398e-09, Final residual = 8.14587e-11, No Iterations 1
ExecutionTime = 16.9 s  ClockTime = 21 s

Time = 463

DILUPBiCGStab:  Solving for omega, Initial residual = 3.60916e-09, Final residual = 7.99079e-11, No Iterations 1
ExecutionTime = 16.93 s  ClockTime = 21 s

Time = 464

DILUPBiCGStab:  Solving for omega, Initial residual = 3.53586e-09, Final residual = 7.83842e-11, No Iterations 1
ExecutionTime = 16.95 s  ClockTime = 21 s

Time = 465

[...]

Time = 5885

DILUPBiCGStab:  Solving for omega, Initial residual = 9.80558e-11, Final residual = 9.80558e-11, No Iterations 0
ExecutionTime = 183.79 s  ClockTime = 219 s

Time = 5886

DILUPBiCGStab:  Solving for omega, Initial residual = 9.80558e-11, Final residual = 9.80558e-11, No Iterations 0
ExecutionTime = 183.81 s  ClockTime = 219 s

Time = 5887

DILUPBiCGStab:  Solving for omega, Initial residual = 9.80558e-11, Final residual = 9.80558e-11, No Iterations 0
ExecutionTime = 183.83 s  ClockTime = 219 s

Time = 5888

DILUPBiCGStab:  Solving for omega, Initial residual = 9.80558e-11, Final residual = 9.80558e-11, No Iterations 0
ExecutionTime = 183.86 s  ClockTime = 219 s

Time = 5889

DILUPBiCGStab:  Solving for omega, Initial residual = 9.80558e-11, Final residual = 9.80558e-11, No Iterations 0
ExecutionTime = 183.89 s  ClockTime = 219 s

Time = 5890

DILUPBiCGStab:  Solving for omega, Initial residual = 9.80558e-11, Final residual = 9.80558e-11, No Iterations 0
ExecutionTime = 183.91 s  ClockTime = 219 s

Time = 5891

DILUPBiCGStab:  Solving for omega, Initial residual = 9.80558e-11, Final residual = 9.80558e-11, No Iterations 0
ExecutionTime = 183.93 s  ClockTime = 219 s

Time = 5892

DILUPBiCGStab:  Solving for omega, Initial residual = 9.80558e-11, Final residual = 9.80558e-11, No Iterations 0
ExecutionTime = 183.96 s  ClockTime = 219 s

Time = 5893

DILUPBiCGStab:  Solving for omega, Initial residual = 9.80558e-11, Final residual = 9.80558e-11, No Iterations 0
ExecutionTime = 183.99 s  ClockTime = 219 s

Time = 5894

DILUPBiCGStab:  Solving for omega, Initial residual = 9.80558e-11, Final residual = 9.80558e-11, No Iterations 0
ExecutionTime = 184.01 s  ClockTime = 219 s

Time = 5895

DILUPBiCGStab:  Solving for omega, Initial residual = 9.80558e-11, Final residual = 9.80558e-11, No Iterations 0
ExecutionTime = 184.04 s  ClockTime = 219 s

Time = 5896

DILUPBiCGStab:  Solving for omega, Initial residual = 9.80558e-11, Final residual = 9.80558e-11, No Iterations 0
ExecutionTime = 184.06 s  ClockTime = 219 s

Time = 5897

DILUPBiCGStab:  Solving for omega, Initial residual = 9.80558e-11, Final residual = 9.80558e-11, No Iterations 0
ExecutionTime = 184.09 s  ClockTime = 219 s

Time = 5898

DILUPBiCGStab:  Solving for omega, Initial residual = 9.80558e-11, Final residual = 9.80558e-11, No Iterations 0
ExecutionTime = 184.11 s  ClockTime = 219 s

Time = 5899

DILUPBiCGStab:  Solving for omega, Initial residual = 9.80558e-11, Final residual = 9.80558e-11, No Iterations 0
ExecutionTime = 184.15 s  ClockTime = 219 s

Time = 5900

DILUPBiCGStab:  Solving for omega, Initial residual = 9.80558e-11, Final residual = 9.80558e-11, No Iterations 0
ExecutionTime = 184.17 s  ClockTime = 219 s

Time = 5901

DILUPBiCGStab:  Solving for omega, Initial residual = 9.80558e-11, Final residual = 9.80558e-11, No Iterations 0
ExecutionTime = 184.19 s  ClockTime = 219 s

Time = 5902

DILUPBiCGStab:  Solving for omega, Initial residual = 9.80558e-11, Final residual = 9.80558e-11, No Iterations 0
ExecutionTime = 184.22 s  ClockTime = 219 s

Time = 5903

DILUPBiCGStab:  Solving for omega, Initial residual = 9.80558e-11, Final residual = 9.80558e-11, No Iterations 0
ExecutionTime = 184.24 s  ClockTime = 219 s

Time = 5904

DILUPBiCGStab:  Solving for omega, Initial residual = 9.80558e-11, Final residual = 9.80558e-11, No Iterations 0
ExecutionTime = 184.27 s  ClockTime = 219 s

Time = 5905

DILUPBiCGStab:  Solving for omega, Initial residual = 9.80558e-11, Final residual = 9.80558e-11, No Iterations 0
ExecutionTime = 184.3 s  ClockTime = 219 s

Time = 5906

DILUPBiCGStab:  Solving for omega, Initial residual = 9.80558e-11, Final residual = 9.80558e-11, No Iterations 0
ExecutionTime = 184.33 s  ClockTime = 219 s

Time = 5907

DILUPBiCGStab:  Solving for omega, Initial residual = 9.80558e-11, Final residual = 9.80558e-11, No Iterations 0
ExecutionTime = 184.36 s  ClockTime = 219 s

Time = 5908

DILUPBiCGStab:  Solving for omega, Initial residual = 9.80558e-11, Final residual = 9.80558e-11, No Iterations 0
ExecutionTime = 184.39 s  ClockTime = 220 s

Time = 5909

DILUPBiCGStab:  Solving for omega, Initial residual = 9.80558e-11, Final residual = 9.80558e-11, No Iterations 0
ExecutionTime = 184.42 s  ClockTime = 220 s

Time = 5910

DILUPBiCGStab:  Solving for omega, Initial residual = 9.80558e-11, Final residual = 9.80558e-11, No Iterations 0
ExecutionTime = 184.46 s  ClockTime = 220 s

Time = 5911

DILUPBiCGStab:  Solving for omega, Initial residual = 9.80558e-11, Final residual = 9.80558e-11, No Iterations 0
ExecutionTime = 184.51 s  ClockTime = 220 s

Time = 5912

DILUPBiCGStab:  Solving for omega, Initial residual = 9.80558e-11, Final residual = 9.80558e-11, No Iterations 0
ExecutionTime = 184.53 s  ClockTime = 220 s

Time = 5913

DILUPBiCGStab:  Solving for omega, Initial residual = 9.80558e-11, Final residual = 9.80558e-11, No Iterations 0
ExecutionTime = 184.56 s  ClockTime = 220 s

Time = 5914

DILUPBiCGStab:  Solving for omega, Initial residual = 9.80558e-11, Final residual = 9.80558e-11, No Iterations 0
ExecutionTime = 184.59 s  ClockTime = 220 s

Time = 5915

DILUPBiCGStab:  Solving for omega, Initial residual = 9.80558e-11, Final residual = 9.80558e-11, No Iterations 0
ExecutionTime = 184.61 s  ClockTime = 220 s

Time = 5916

DILUPBiCGStab:  Solving for omega, Initial residual = 9.80558e-11, Final residual = 9.80558e-11, No Iterations 0
ExecutionTime = 184.66 s  ClockTime = 220 s

Time = 5917

DILUPBiCGStab:  Solving for omega, Initial residual = 9.80558e-11, Final residual = 9.80558e-11, No Iterations 0
ExecutionTime = 184.69 s  ClockTime = 220 s

Time = 5918

DILUPBiCGStab:  Solving for omega, Initial residual = 9.80558e-11, Final residual = 9.80558e-11, No Iterations 0
ExecutionTime = 184.73 s  ClockTime = 220 s

Time = 5919

DILUPBiCGStab:  Solving for omega, Initial residual = 9.80558e-11, Final residual = 9.80558e-11, No Iterations 0
ExecutionTime = 184.76 s  ClockTime = 220 s

Time = 5920

DILUPBiCGStab:  Solving for omega, Initial residual = 9.80558e-11, Final residual = 9.80558e-11, No Iterations 0
ExecutionTime = 184.78 s  ClockTime = 220 s

Time = 5921

DILUPBiCGStab:  Solving for omega, Initial residual = 9.80558e-11, Final residual = 9.80558e-11, No Iterations 0
ExecutionTime = 184.81 s  ClockTime = 220 s

Time = 5922

DILUPBiCGStab:  Solving for omega, Initial residual = 9.80558e-11, Final residual = 9.80558e-11, No Iterations 0
ExecutionTime = 184.83 s  ClockTime = 220 s

Time = 5923

DILUPBiCGStab:  Solving for omega, Initial residual = 9.80558e-11, Final residual = 9.80558e-11, No Iterations 0
ExecutionTime = 184.86 s  ClockTime = 220 s

Time = 5924

DILUPBiCGStab:  Solving for omega, Initial residual = 9.80558e-11, Final residual = 9.80558e-11, No Iterations 0
ExecutionTime = 184.88 s  ClockTime = 220 s

Time = 5925

DILUPBiCGStab:  Solving for omega, Initial residual = 9.80558e-11, Final residual = 9.80558e-11, No Iterations 0
ExecutionTime = 184.91 s  ClockTime = 220 s

Time = 5926

DILUPBiCGStab:  Solving for omega, Initial residual = 9.80558e-11, Final residual = 9.80558e-11, No Iterations 0
ExecutionTime = 184.94 s  ClockTime = 220 s

Time = 5927

DILUPBiCGStab:  Solving for omega, Initial residual = 9.80558e-11, Final residual = 9.80558e-11, No Iterations 0
ExecutionTime = 184.96 s  ClockTime = 220 s

Time = 5928

DILUPBiCGStab:  Solving for omega, Initial residual = 9.80558e-11, Final residual = 9.80558e-11, No Iterations 0
ExecutionTime = 184.99 s  ClockTime = 220 s

Time = 5929

DILUPBiCGStab:  Solving for omega, Initial residual = 9.80558e-11, Final residual = 9.80558e-11, No Iterations 0
ExecutionTime = 185.01 s  ClockTime = 220 s

Time = 5930

DILUPBiCGStab:  Solving for omega, Initial residual = 9.80558e-11, Final residual = 9.80558e-11, No Iterations 0
ExecutionTime = 185.05 s  ClockTime = 220 s

Time = 5931

DILUPBiCGStab:  Solving for omega, Initial residual = 9.80558e-11, Final residual = 9.80558e-11, No Iterations 0
ExecutionTime = 185.08 s  ClockTime = 220 s

Time = 5932

DILUPBiCGStab:  Solving for omega, Initial residual = 9.80558e-11, Final residual = 9.80558e-11, No Iterations 0
ExecutionTime = 185.1 s  ClockTime = 220 s

Time = 5933

DILUPBiCGStab:  Solving for omega, Initial residual = 9.80558e-11, Final residual = 9.80558e-11, No Iterations 0
ExecutionTime = 185.13 s  ClockTime = 220 s

Time = 5934

DILUPBiCGStab:  Solving for omega, Initial residual = 9.80558e-11, Final residual = 9.80558e-11, No Iterations 0
ExecutionTime = 185.15 s  ClockTime = 221 s

Time = 5935

DILUPBiCGStab:  Solving for omega, Initial residual = 9.80558e-11, Final residual = 9.80558e-11, No Iterations 0
ExecutionTime = 185.18 s  ClockTime = 221 s

Time = 5936

DILUPBiCGStab:  Solving for omega, Initial residual = 9.80558e-11, Final residual = 9.80558e-11, No Iterations 0
ExecutionTime = 185.21 s  ClockTime = 221 s

Time = 5937

DILUPBiCGStab:  Solving for omega, Initial residual = 9.80558e-11, Final residual = 9.80558e-11, No Iterations 0
ExecutionTime = 185.25 s  ClockTime = 221 s

Time = 5938

DILUPBiCGStab:  Solving for omega, Initial residual = 9.80558e-11, Final residual = 9.80558e-11, No Iterations 0
ExecutionTime = 185.27 s  ClockTime = 221 s

Time = 5939

DILUPBiCGStab:  Solving for omega, Initial residual = 9.80558e-11, Final residual = 9.80558e-11, No Iterations 0
ExecutionTime = 185.29 s  ClockTime = 221 s

Time = 5940

DILUPBiCGStab:  Solving for omega, Initial residual = 9.80558e-11, Final residual = 9.80558e-11, No Iterations 0
ExecutionTime = 185.32 s  ClockTime = 221 s

Time = 5941

DILUPBiCGStab:  Solving for omega, Initial residual = 9.80558e-11, Final residual = 9.80558e-11, No Iterations 0
ExecutionTime = 185.34 s  ClockTime = 221 s

Time = 5942

DILUPBiCGStab:  Solving for omega, Initial residual = 9.80558e-11, Final residual = 9.80558e-11, No Iterations 0
ExecutionTime = 185.37 s  ClockTime = 221 s

Time = 5943

DILUPBiCGStab:  Solving for omega, Initial residual = 9.80558e-11, Final residual = 9.80558e-11, No Iterations 0
ExecutionTime = 185.39 s  ClockTime = 221 s

Time = 5944

DILUPBiCGStab:  Solving for omega, Initial residual = 9.80558e-11, Final residual = 9.80558e-11, No Iterations 0
ExecutionTime = 185.42 s  ClockTime = 221 s

Time = 5945

DILUPBiCGStab:  Solving for omega, Initial residual = 9.80558e-11, Final residual = 9.80558e-11, No Iterations 0
ExecutionTime = 185.45 s  ClockTime = 221 s

Time = 5946

DILUPBiCGStab:  Solving for omega, Initial residual = 9.80558e-11, Final residual = 9.80558e-11, No Iterations 0
ExecutionTime = 185.47 s  ClockTime = 221 s

Time = 5947

DILUPBiCGStab:  Solving for omega, Initial residual = 9.80558e-11, Final residual = 9.80558e-11, No Iterations 0
ExecutionTime = 185.49 s  ClockTime = 221 s

Time = 5948

DILUPBiCGStab:  Solving for omega, Initial residual = 9.80558e-11, Final residual = 9.80558e-11, No Iterations 0
ExecutionTime = 185.51 s  ClockTime = 221 s

Time = 5949

DILUPBiCGStab:  Solving for omega, Initial residual = 9.80558e-11, Final residual = 9.80558e-11, No Iterations 0
ExecutionTime = 185.54 s  ClockTime = 221 s

Time = 5950

DILUPBiCGStab:  Solving for omega, Initial residual = 9.80558e-11, Final residual = 9.80558e-11, No Iterations 0
ExecutionTime = 185.56 s  ClockTime = 221 s

Time = 5951

DILUPBiCGStab:  Solving for omega, Initial residual = 9.80558e-11, Final residual = 9.80558e-11, No Iterations 0
ExecutionTime = 185.59 s  ClockTime = 221 s

Time = 5952

DILUPBiCGStab:  Solving for omega, Initial residual = 9.80558e-11, Final residual = 9.80558e-11, No Iterations 0
ExecutionTime = 185.62 s  ClockTime = 221 s

Time = 5953

DILUPBiCGStab:  Solving for omega, Initial residual = 9.80558e-11, Final residual = 9.80558e-11, No Iterations 0
ExecutionTime = 185.65 s  ClockTime = 221 s

Time = 5954

DILUPBiCGStab:  Solving for omega, Initial residual = 9.80558e-11, Final residual = 9.80558e-11, No Iterations 0
ExecutionTime = 185.67 s  ClockTime = 221 s

Time = 5955

DILUPBiCGStab:  Solving for omega, Initial residual = 9.80558e-11, Final residual = 9.80558e-11, No Iterations 0
ExecutionTime = 185.69 s  ClockTime = 221 s

Time = 5956

DILUPBiCGStab:  Solving for omega, Initial residual = 9.80558e-11, Final residual = 9.80558e-11, No Iterations 0
ExecutionTime = 185.72 s  ClockTime = 221 s

Time = 5957

DILUPBiCGStab:  Solving for omega, Initial residual = 9.80558e-11, Final residual = 9.80558e-11, No Iterations 0
ExecutionTime = 185.74 s  ClockTime = 221 s

Time = 5958

DILUPBiCGStab:  Solving for omega, Initial residual = 9.80558e-11, Final residual = 9.80558e-11, No Iterations 0
ExecutionTime = 185.76 s  ClockTime = 221 s

Time = 5959

DILUPBiCGStab:  Solving for omega, Initial residual = 9.80558e-11, Final residual = 9.80558e-11, No Iterations 0
ExecutionTime = 185.78 s  ClockTime = 221 s

Time = 5960

DILUPBiCGStab:  Solving for omega, Initial residual = 9.80558e-11, Final residual = 9.80558e-11, No Iterations 0
ExecutionTime = 185.82 s  ClockTime = 221 s

Time = 5961

DILUPBiCGStab:  Solving for omega, Initial residual = 9.80558e-11, Final residual = 9.80558e-11, No Iterations 0
ExecutionTime = 185.84 s  ClockTime = 221 s

Time = 5962

DILUPBiCGStab:  Solving for omega, Initial residual = 9.80558e-11, Final residual = 9.80558e-11, No Iterations 0
ExecutionTime = 185.86 s  ClockTime = 221 s

Time = 5963

DILUPBiCGStab:  Solving for omega, Initial residual = 9.80558e-11, Final residual = 9.80558e-11, No Iterations 0
ExecutionTime = 185.88 s  ClockTime = 221 s

Time = 5964

DILUPBiCGStab:  Solving for omega, Initial residual = 9.80558e-11, Final residual = 9.80558e-11, No Iterations 0
ExecutionTime = 185.91 s  ClockTime = 221 s

Time = 5965

DILUPBiCGStab:  Solving for omega, Initial residual = 9.80558e-11, Final residual = 9.80558e-11, No Iterations 0
ExecutionTime = 185.93 s  ClockTime = 222 s

Time = 5966

DILUPBiCGStab:  Solving for omega, Initial residual = 9.80558e-11, Final residual = 9.80558e-11, No Iterations 0
ExecutionTime = 185.96 s  ClockTime = 222 s

Time = 5967

DILUPBiCGStab:  Solving for omega, Initial residual = 9.80558e-11, Final residual = 9.80558e-11, No Iterations 0
ExecutionTime = 185.98 s  ClockTime = 222 s

Time = 5968

DILUPBiCGStab:  Solving for omega, Initial residual = 9.80558e-11, Final residual = 9.80558e-11, No Iterations 0
ExecutionTime = 186.01 s  ClockTime = 222 s

Time = 5969

DILUPBiCGStab:  Solving for omega, Initial residual = 9.80558e-11, Final residual = 9.80558e-11, No Iterations 0
ExecutionTime = 186.04 s  ClockTime = 222 s

Time = 5970

DILUPBiCGStab:  Solving for omega, Initial residual = 9.80558e-11, Final residual = 9.80558e-11, No Iterations 0
ExecutionTime = 186.06 s  ClockTime = 222 s

Time = 5971

DILUPBiCGStab:  Solving for omega, Initial residual = 9.80558e-11, Final residual = 9.80558e-11, No Iterations 0
ExecutionTime = 186.09 s  ClockTime = 222 s

Time = 5972

DILUPBiCGStab:  Solving for omega, Initial residual = 9.80558e-11, Final residual = 9.80558e-11, No Iterations 0
ExecutionTime = 186.11 s  ClockTime = 222 s

Time = 5973

DILUPBiCGStab:  Solving for omega, Initial residual = 9.80558e-11, Final residual = 9.80558e-11, No Iterations 0
ExecutionTime = 186.15 s  ClockTime = 222 s

Time = 5974

DILUPBiCGStab:  Solving for omega, Initial residual = 9.80558e-11, Final residual = 9.80558e-11, No Iterations 0
ExecutionTime = 186.17 s  ClockTime = 222 s

Time = 5975

DILUPBiCGStab:  Solving for omega, Initial residual = 9.80558e-11, Final residual = 9.80558e-11, No Iterations 0
ExecutionTime = 186.21 s  ClockTime = 222 s

Time = 5976

DILUPBiCGStab:  Solving for omega, Initial residual = 9.80558e-11, Final residual = 9.80558e-11, No Iterations 0
ExecutionTime = 186.25 s  ClockTime = 222 s

Time = 5977

DILUPBiCGStab:  Solving for omega, Initial residual = 9.80558e-11, Final residual = 9.80558e-11, No Iterations 0
ExecutionTime = 186.27 s  ClockTime = 222 s

Time = 5978

DILUPBiCGStab:  Solving for omega, Initial residual = 9.80558e-11, Final residual = 9.80558e-11, No Iterations 0
ExecutionTime = 186.29 s  ClockTime = 222 s

Time = 5979

DILUPBiCGStab:  Solving for omega, Initial residual = 9.80558e-11, Final residual = 9.80558e-11, No Iterations 0
ExecutionTime = 186.32 s  ClockTime = 222 s

Time = 5980

DILUPBiCGStab:  Solving for omega, Initial residual = 9.80558e-11, Final residual = 9.80558e-11, No Iterations 0
ExecutionTime = 186.35 s  ClockTime = 222 s

Time = 5981

DILUPBiCGStab:  Solving for omega, Initial residual = 9.80558e-11, Final residual = 9.80558e-11, No Iterations 0
ExecutionTime = 186.38 s  ClockTime = 222 s

Time = 5982

DILUPBiCGStab:  Solving for omega, Initial residual = 9.80558e-11, Final residual = 9.80558e-11, No Iterations 0
ExecutionTime = 186.41 s  ClockTime = 222 s

Time = 5983

DILUPBiCGStab:  Solving for omega, Initial residual = 9.80558e-11, Final residual = 9.80558e-11, No Iterations 0
ExecutionTime = 186.44 s  ClockTime = 222 s

Time = 5984

DILUPBiCGStab:  Solving for omega, Initial residual = 9.80558e-11, Final residual = 9.80558e-11, No Iterations 0
ExecutionTime = 186.47 s  ClockTime = 222 s

Time = 5985

DILUPBiCGStab:  Solving for omega, Initial residual = 9.80558e-11, Final residual = 9.80558e-11, No Iterations 0
ExecutionTime = 186.5 s  ClockTime = 222 s

Time = 5986

DILUPBiCGStab:  Solving for omega, Initial residual = 9.80558e-11, Final residual = 9.80558e-11, No Iterations 0
ExecutionTime = 186.52 s  ClockTime = 222 s

Time = 5987

DILUPBiCGStab:  Solving for omega, Initial residual = 9.80558e-11, Final residual = 9.80558e-11, No Iterations 0
ExecutionTime = 186.56 s  ClockTime = 222 s

Time = 5988

DILUPBiCGStab:  Solving for omega, Initial residual = 9.80558e-11, Final residual = 9.80558e-11, No Iterations 0
ExecutionTime = 186.6 s  ClockTime = 222 s

Time = 5989

DILUPBiCGStab:  Solving for omega, Initial residual = 9.80558e-11, Final residual = 9.80558e-11, No Iterations 0
ExecutionTime = 186.63 s  ClockTime = 222 s

Time = 5990

DILUPBiCGStab:  Solving for omega, Initial residual = 9.80558e-11, Final residual = 9.80558e-11, No Iterations 0
ExecutionTime = 186.66 s  ClockTime = 222 s

Time = 5991

DILUPBiCGStab:  Solving for omega, Initial residual = 9.80558e-11, Final residual = 9.80558e-11, No Iterations 0
ExecutionTime = 186.68 s  ClockTime = 222 s

Time = 5992

DILUPBiCGStab:  Solving for omega, Initial residual = 9.80558e-11, Final residual = 9.80558e-11, No Iterations 0
ExecutionTime = 186.7 s  ClockTime = 223 s

Time = 5993

DILUPBiCGStab:  Solving for omega, Initial residual = 9.80558e-11, Final residual = 9.80558e-11, No Iterations 0
ExecutionTime = 186.73 s  ClockTime = 223 s

Time = 5994

DILUPBiCGStab:  Solving for omega, Initial residual = 9.80558e-11, Final residual = 9.80558e-11, No Iterations 0
ExecutionTime = 186.75 s  ClockTime = 223 s

Time = 5995

DILUPBiCGStab:  Solving for omega, Initial residual = 9.80558e-11, Final residual = 9.80558e-11, No Iterations 0
ExecutionTime = 186.77 s  ClockTime = 223 s

Time = 5996

DILUPBiCGStab:  Solving for omega, Initial residual = 9.80558e-11, Final residual = 9.80558e-11, No Iterations 0
ExecutionTime = 186.79 s  ClockTime = 223 s

Time = 5997

DILUPBiCGStab:  Solving for omega, Initial residual = 9.80558e-11, Final residual = 9.80558e-11, No Iterations 0
ExecutionTime = 186.83 s  ClockTime = 223 s

Time = 5998

DILUPBiCGStab:  Solving for omega, Initial residual = 9.80558e-11, Final residual = 9.80558e-11, No Iterations 0
ExecutionTime = 186.85 s  ClockTime = 223 s

Time = 5999

DILUPBiCGStab:  Solving for omega, Initial residual = 9.80558e-11, Final residual = 9.80558e-11, No Iterations 0
ExecutionTime = 186.87 s  ClockTime = 223 s

Time = 6000

DILUPBiCGStab:  Solving for omega, Initial residual = 9.80558e-11, Final residual = 9.80558e-11, No Iterations 0
ExecutionTime = 187.03 s  ClockTime = 224 s

yPlus yPlus1 write:
    writing field yPlus
    patch bottom y+ : min = 0.0403774, max = 0.846409, average = 0.439463
End

Finalising parallel run
