/*---------------------------------------------------------------------------*\
| =========                 |                                                 |
| \\      /  F ield         | OpenFOAM: The Open Source CFD Toolbox           |
|  \\    /   O peration     | Version:  2506                                  |
|   \\  /    A nd           | Website:  www.openfoam.com                      |
|    \\/     M anipulation  |                                                 |
\*---------------------------------------------------------------------------*/
Build  : _615aae61-20250627 OPENFOAM=2506 version=2506
Arch   : "LSB;label=32;scalar=64"
Exec   : frozenFoam -parallel
Date   : Oct 12 2025
Time   : 14:57:09
Host   : 8401b6293c3b
PID    : 271
I/O    : uncollated
Case   : /home/openfoam/OpenFOAM/openfoam-v2506/run/h42_frozen
nProcs : 4
Hosts  :
(
    (8401b6293c3b 4)
)
Pstream initialized with:
    node communication : off [type=host] (4 ranks, 1 nodes)
    topology controls  : none
    consensus exchange : 0 (tuning: 0)
    exchange algorithm : 0
    commsType          : nonBlocking
    polling iterations : 0
trapFpe: Floating point exception trapping enabled (FOAM_SIGFPE).
fileModificationChecking : Monitoring run-time modified files using timeStampMaster (fileModificationSkew 5, maxFileModificationPolls 20)
allowSystemOperations : Allowing user-supplied system call operations

// * * * * * * * * * * * * * * * * * * * * * * * * * * * * * * * * * * * * * //
Create time

Create mesh for time = 0


SIMPLE: no convergence criteria found. Calculations will run for 6000 steps.

Reading field p

Reading field U

Reading/calculating face flux field phi

Selecting incompressible transport model Newtonian
Selecting turbulence model type RAS
Selecting RAS turbulence model frozenSST
Selecting patchDistMethod meshWave
RAS
{
    RASModel        frozenSST;
    turbulence      on;
    printCoeffs     on;
    alphaK1         0.85;
    alphaK2         1;
    alphaOmega1     0.5;
    alphaOmega2     0.856;
    gamma1          0.555556;
    gamma2          0.44;
    beta1           0.075;
    beta2           0.0828;
    betaStar        0.09;
    a1              0.31;
    b1              1;
    c1              10;
    F3              false;
    decayControl    false;
    kInf            0;
    omegaInf        0;
}

No MRF models present

No finite volume options present

Starting time loop

--> FOAM Warning : 
    From void Foam::timeControl::read(const Foam::dictionary&)
    in file db/functionObjects/timeControl/timeControl.C at line 131
    Reading "system/controlDict/functions/yPlus1" at line 55
    Found deprecated 'outputControl'
    Use 'writeControl' with 'writeInterval'
Time = 1

DILUPBiCGStab:  Solving for omega, Initial residual = 0.0153441, Final residual = 9.93105e-11, No Iterations 7
ExecutionTime = 0.67 s  ClockTime = 1 s

Time = 2

DILUPBiCGStab:  Solving for omega, Initial residual = 0.162555, Final residual = 7.60213e-12, No Iterations 8
ExecutionTime = 0.72 s  ClockTime = 1 s

Time = 3

DILUPBiCGStab:  Solving for omega, Initial residual = 0.00774375, Final residual = 7.68372e-11, No Iterations 7
ExecutionTime = 0.78 s  ClockTime = 1 s

Time = 4

DILUPBiCGStab:  Solving for omega, Initial residual = 0.00706304, Final residual = 6.49791e-11, No Iterations 7
ExecutionTime = 0.83 s  ClockTime = 1 s

Time = 5

DILUPBiCGStab:  Solving for omega, Initial residual = 0.00295859, Final residual = 5.09178e-11, No Iterations 7
ExecutionTime = 0.88 s  ClockTime = 1 s

Time = 6

DILUPBiCGStab:  Solving for omega, Initial residual = 0.0020838, Final residual = 5.21916e-11, No Iterations 7
ExecutionTime = 0.92 s  ClockTime = 2 s

Time = 7

DILUPBiCGStab:  Solving for omega, Initial residual = 0.00108967, Final residual = 9.00516e-11, No Iterations 7
ExecutionTime = 0.96 s  ClockTime = 2 s

Time = 8

DILUPBiCGStab:  Solving for omega, Initial residual = 0.000685787, Final residual = 7.86716e-11, No Iterations 8
ExecutionTime = 1.01 s  ClockTime = 2 s

Time = 9

DILUPBiCGStab:  Solving for omega, Initial residual = 0.000396197, Final residual = 6.38384e-11, No Iterations 8
ExecutionTime = 1.06 s  ClockTime = 2 s

Time = 10

DILUPBiCGStab:  Solving for omega, Initial residual = 0.000248527, Final residual = 5.0734e-11, No Iterations 8
ExecutionTime = 1.1 s  ClockTime = 2 s

Time = 11

DILUPBiCGStab:  Solving for omega, Initial residual = 0.000156517, Final residual = 3.67161e-11, No Iterations 8
ExecutionTime = 1.15 s  ClockTime = 2 s

Time = 12

DILUPBiCGStab:  Solving for omega, Initial residual = 0.000105293, Final residual = 2.77814e-11, No Iterations 8
ExecutionTime = 1.19 s  ClockTime = 2 s

Time = 13

DILUPBiCGStab:  Solving for omega, Initial residual = 7.43092e-05, Final residual = 2.61933e-11, No Iterations 8
ExecutionTime = 1.25 s  ClockTime = 2 s

Time = 14

DILUPBiCGStab:  Solving for omega, Initial residual = 5.61636e-05, Final residual = 2.16716e-11, No Iterations 8
ExecutionTime = 1.3 s  ClockTime = 2 s

Time = 15

DILUPBiCGStab:  Solving for omega, Initial residual = 4.49189e-05, Final residual = 1.70074e-11, No Iterations 8
ExecutionTime = 1.34 s  ClockTime = 2 s

Time = 16

DILUPBiCGStab:  Solving for omega, Initial residual = 3.79055e-05, Final residual = 7.88006e-11, No Iterations 7
ExecutionTime = 1.39 s  ClockTime = 2 s

Time = 17

DILUPBiCGStab:  Solving for omega, Initial residual = 3.32398e-05, Final residual = 9.23509e-11, No Iterations 7
ExecutionTime = 1.43 s  ClockTime = 2 s

Time = 18

DILUPBiCGStab:  Solving for omega, Initial residual = 3.00372e-05, Final residual = 4.67451e-11, No Iterations 7
ExecutionTime = 1.47 s  ClockTime = 2 s

Time = 19

DILUPBiCGStab:  Solving for omega, Initial residual = 2.76716e-05, Final residual = 8.24169e-11, No Iterations 6
ExecutionTime = 1.51 s  ClockTime = 2 s

Time = 20

DILUPBiCGStab:  Solving for omega, Initial residual = 2.58565e-05, Final residual = 8.52123e-11, No Iterations 6
ExecutionTime = 1.55 s  ClockTime = 2 s

Time = 21

DILUPBiCGStab:  Solving for omega, Initial residual = 2.43657e-05, Final residual = 8.30148e-11, No Iterations 6
ExecutionTime = 1.59 s  ClockTime = 2 s

Time = 22

DILUPBiCGStab:  Solving for omega, Initial residual = 2.31154e-05, Final residual = 6.23754e-11, No Iterations 6
ExecutionTime = 1.63 s  ClockTime = 2 s

Time = 23

DILUPBiCGStab:  Solving for omega, Initial residual = 2.20161e-05, Final residual = 2.64641e-11, No Iterations 7
ExecutionTime = 1.67 s  ClockTime = 2 s

Time = 24

DILUPBiCGStab:  Solving for omega, Initial residual = 2.10452e-05, Final residual = 8.35102e-11, No Iterations 6
ExecutionTime = 1.71 s  ClockTime = 2 s

Time = 25

DILUPBiCGStab:  Solving for omega, Initial residual = 2.01614e-05, Final residual = 6.08347e-11, No Iterations 6
ExecutionTime = 1.75 s  ClockTime = 2 s

Time = 26

DILUPBiCGStab:  Solving for omega, Initial residual = 1.93599e-05, Final residual = 9.3297e-11, No Iterations 6
ExecutionTime = 1.79 s  ClockTime = 2 s

Time = 27

DILUPBiCGStab:  Solving for omega, Initial residual = 1.86192e-05, Final residual = 9.50527e-11, No Iterations 6
ExecutionTime = 1.83 s  ClockTime = 2 s

Time = 28

DILUPBiCGStab:  Solving for omega, Initial residual = 1.79383e-05, Final residual = 5.98153e-11, No Iterations 6
ExecutionTime = 1.87 s  ClockTime = 3 s

Time = 29

DILUPBiCGStab:  Solving for omega, Initial residual = 1.73048e-05, Final residual = 5.94676e-11, No Iterations 6
ExecutionTime = 1.91 s  ClockTime = 3 s

Time = 30

DILUPBiCGStab:  Solving for omega, Initial residual = 1.67176e-05, Final residual = 4.76496e-11, No Iterations 6
ExecutionTime = 1.97 s  ClockTime = 3 s

Time = 31

DILUPBiCGStab:  Solving for omega, Initial residual = 1.61687e-05, Final residual = 4.61263e-11, No Iterations 6
ExecutionTime = 2.01 s  ClockTime = 3 s

Time = 32

DILUPBiCGStab:  Solving for omega, Initial residual = 1.56565e-05, Final residual = 4.18386e-11, No Iterations 6
ExecutionTime = 2.06 s  ClockTime = 3 s

Time = 33

DILUPBiCGStab:  Solving for omega, Initial residual = 1.51756e-05, Final residual = 3.61569e-11, No Iterations 6
ExecutionTime = 2.09 s  ClockTime = 3 s

Time = 34

DILUPBiCGStab:  Solving for omega, Initial residual = 1.47237e-05, Final residual = 5.41677e-11, No Iterations 6
ExecutionTime = 2.13 s  ClockTime = 3 s

Time = 35

DILUPBiCGStab:  Solving for omega, Initial residual = 1.42962e-05, Final residual = 5.84318e-11, No Iterations 6
ExecutionTime = 2.17 s  ClockTime = 3 s

Time = 36

DILUPBiCGStab:  Solving for omega, Initial residual = 1.38916e-05, Final residual = 5.3207e-11, No Iterations 6
ExecutionTime = 2.21 s  ClockTime = 3 s

Time = 37

DILUPBiCGStab:  Solving for omega, Initial residual = 1.35092e-05, Final residual = 9.24011e-11, No Iterations 6
ExecutionTime = 2.26 s  ClockTime = 3 s

Time = 38

DILUPBiCGStab:  Solving for omega, Initial residual = 1.31478e-05, Final residual = 8.84693e-11, No Iterations 5
ExecutionTime = 2.29 s  ClockTime = 3 s

Time = 39

DILUPBiCGStab:  Solving for omega, Initial residual = 1.28057e-05, Final residual = 8.12426e-11, No Iterations 5
ExecutionTime = 2.34 s  ClockTime = 3 s

Time = 40

DILUPBiCGStab:  Solving for omega, Initial residual = 1.24815e-05, Final residual = 7.50138e-11, No Iterations 5
ExecutionTime = 2.39 s  ClockTime = 3 s

Time = 41

DILUPBiCGStab:  Solving for omega, Initial residual = 1.21738e-05, Final residual = 6.80838e-11, No Iterations 5
ExecutionTime = 2.43 s  ClockTime = 3 s

Time = 42

DILUPBiCGStab:  Solving for omega, Initial residual = 1.18813e-05, Final residual = 6.45518e-11, No Iterations 5
ExecutionTime = 2.47 s  ClockTime = 3 s

Time = 43

DILUPBiCGStab:  Solving for omega, Initial residual = 1.16029e-05, Final residual = 6.58242e-11, No Iterations 5
ExecutionTime = 2.51 s  ClockTime = 3 s

Time = 44

DILUPBiCGStab:  Solving for omega, Initial residual = 1.13375e-05, Final residual = 6.31449e-11, No Iterations 5
ExecutionTime = 2.55 s  ClockTime = 3 s

Time = 45

DILUPBiCGStab:  Solving for omega, Initial residual = 1.1084e-05, Final residual = 5.61804e-11, No Iterations 5
ExecutionTime = 2.58 s  ClockTime = 3 s

Time = 46

DILUPBiCGStab:  Solving for omega, Initial residual = 1.08416e-05, Final residual = 4.09045e-11, No Iterations 5
ExecutionTime = 2.62 s  ClockTime = 3 s

Time = 47

DILUPBiCGStab:  Solving for omega, Initial residual = 1.06095e-05, Final residual = 3.66784e-11, No Iterations 5
ExecutionTime = 2.66 s  ClockTime = 3 s

Time = 48

DILUPBiCGStab:  Solving for omega, Initial residual = 1.0387e-05, Final residual = 9.8061e-11, No Iterations 5
ExecutionTime = 2.69 s  ClockTime = 3 s

Time = 49

DILUPBiCGStab:  Solving for omega, Initial residual = 1.01733e-05, Final residual = 9.41216e-11, No Iterations 5
ExecutionTime = 2.73 s  ClockTime = 3 s

Time = 50

DILUPBiCGStab:  Solving for omega, Initial residual = 9.96787e-06, Final residual = 9.24349e-11, No Iterations 5
ExecutionTime = 2.78 s  ClockTime = 3 s

Time = 51

DILUPBiCGStab:  Solving for omega, Initial residual = 9.77006e-06, Final residual = 9.38544e-11, No Iterations 5
ExecutionTime = 2.82 s  ClockTime = 4 s

Time = 52

DILUPBiCGStab:  Solving for omega, Initial residual = 9.57925e-06, Final residual = 9.78275e-11, No Iterations 5
ExecutionTime = 2.86 s  ClockTime = 4 s

Time = 53

DILUPBiCGStab:  Solving for omega, Initial residual = 9.39484e-06, Final residual = 5.57225e-11, No Iterations 5
ExecutionTime = 2.92 s  ClockTime = 4 s

Time = 54

DILUPBiCGStab:  Solving for omega, Initial residual = 9.2163e-06, Final residual = 5.85322e-11, No Iterations 5
ExecutionTime = 2.97 s  ClockTime = 4 s

Time = 55

DILUPBiCGStab:  Solving for omega, Initial residual = 9.04309e-06, Final residual = 5.76673e-11, No Iterations 5
ExecutionTime = 3.02 s  ClockTime = 4 s

Time = 56

DILUPBiCGStab:  Solving for omega, Initial residual = 8.87474e-06, Final residual = 5.26771e-11, No Iterations 5
ExecutionTime = 3.06 s  ClockTime = 4 s

Time = 57

DILUPBiCGStab:  Solving for omega, Initial residual = 8.71074e-06, Final residual = 4.54062e-11, No Iterations 5
ExecutionTime = 3.11 s  ClockTime = 4 s

Time = 58

DILUPBiCGStab:  Solving for omega, Initial residual = 8.55066e-06, Final residual = 4.23198e-11, No Iterations 5
ExecutionTime = 3.15 s  ClockTime = 4 s

Time = 59

DILUPBiCGStab:  Solving for omega, Initial residual = 8.39408e-06, Final residual = 4.45549e-11, No Iterations 5
ExecutionTime = 3.19 s  ClockTime = 4 s

Time = 60

DILUPBiCGStab:  Solving for omega, Initial residual = 8.2407e-06, Final residual = 4.88224e-11, No Iterations 5
ExecutionTime = 3.23 s  ClockTime = 4 s

Time = 61

DILUPBiCGStab:  Solving for omega, Initial residual = 8.09023e-06, Final residual = 5.32935e-11, No Iterations 5
ExecutionTime = 3.27 s  ClockTime = 4 s

Time = 62

DILUPBiCGStab:  Solving for omega, Initial residual = 7.94246e-06, Final residual = 5.64415e-11, No Iterations 5
ExecutionTime = 3.31 s  ClockTime = 4 s

Time = 63

DILUPBiCGStab:  Solving for omega, Initial residual = 7.79727e-06, Final residual = 5.8054e-11, No Iterations 5
ExecutionTime = 3.34 s  ClockTime = 4 s

Time = 64

DILUPBiCGStab:  Solving for omega, Initial residual = 7.65462e-06, Final residual = 5.85984e-11, No Iterations 5
ExecutionTime = 3.38 s  ClockTime = 4 s

Time = 65

DILUPBiCGStab:  Solving for omega, Initial residual = 7.5145e-06, Final residual = 5.85929e-11, No Iterations 5
ExecutionTime = 3.42 s  ClockTime = 4 s

Time = 66

DILUPBiCGStab:  Solving for omega, Initial residual = 7.37692e-06, Final residual = 5.80999e-11, No Iterations 5
ExecutionTime = 3.46 s  ClockTime = 4 s

Time = 67

DILUPBiCGStab:  Solving for omega, Initial residual = 7.24195e-06, Final residual = 5.72951e-11, No Iterations 5
ExecutionTime = 3.5 s  ClockTime = 4 s

Time = 68

DILUPBiCGStab:  Solving for omega, Initial residual = 7.10965e-06, Final residual = 5.63076e-11, No Iterations 5
ExecutionTime = 3.54 s  ClockTime = 4 s

Time = 69

DILUPBiCGStab:  Solving for omega, Initial residual = 6.98008e-06, Final residual = 5.52172e-11, No Iterations 5
ExecutionTime = 3.58 s  ClockTime = 4 s

Time = 70

DILUPBiCGStab:  Solving for omega, Initial residual = 6.85325e-06, Final residual = 5.40568e-11, No Iterations 5
ExecutionTime = 3.62 s  ClockTime = 4 s

Time = 71

DILUPBiCGStab:  Solving for omega, Initial residual = 6.72917e-06, Final residual = 5.29211e-11, No Iterations 5
ExecutionTime = 3.66 s  ClockTime = 4 s

Time = 72

DILUPBiCGStab:  Solving for omega, Initial residual = 6.60781e-06, Final residual = 5.17798e-11, No Iterations 5
ExecutionTime = 3.69 s  ClockTime = 4 s

Time = 73

DILUPBiCGStab:  Solving for omega, Initial residual = 6.48914e-06, Final residual = 5.06066e-11, No Iterations 5
ExecutionTime = 3.73 s  ClockTime = 4 s

Time = 74

DILUPBiCGStab:  Solving for omega, Initial residual = 6.37307e-06, Final residual = 4.94654e-11, No Iterations 5
ExecutionTime = 3.77 s  ClockTime = 5 s

Time = 75

DILUPBiCGStab:  Solving for omega, Initial residual = 6.25952e-06, Final residual = 4.83608e-11, No Iterations 5
ExecutionTime = 3.81 s  ClockTime = 5 s

Time = 76

DILUPBiCGStab:  Solving for omega, Initial residual = 6.1484e-06, Final residual = 4.73011e-11, No Iterations 5
ExecutionTime = 3.85 s  ClockTime = 5 s

Time = 77

DILUPBiCGStab:  Solving for omega, Initial residual = 6.03961e-06, Final residual = 4.62487e-11, No Iterations 5
ExecutionTime = 3.89 s  ClockTime = 5 s

Time = 78

DILUPBiCGStab:  Solving for omega, Initial residual = 5.93304e-06, Final residual = 4.52253e-11, No Iterations 5
ExecutionTime = 3.93 s  ClockTime = 5 s

Time = 79

DILUPBiCGStab:  Solving for omega, Initial residual = 5.82858e-06, Final residual = 4.42521e-11, No Iterations 5
ExecutionTime = 3.97 s  ClockTime = 5 s

Time = 80

DILUPBiCGStab:  Solving for omega, Initial residual = 5.72615e-06, Final residual = 4.33164e-11, No Iterations 5
ExecutionTime = 4.01 s  ClockTime = 5 s

Time = 81

DILUPBiCGStab:  Solving for omega, Initial residual = 5.62565e-06, Final residual = 9.7397e-11, No Iterations 5
ExecutionTime = 4.05 s  ClockTime = 5 s

Time = 82

DILUPBiCGStab:  Solving for omega, Initial residual = 5.52701e-06, Final residual = 9.46528e-11, No Iterations 5
ExecutionTime = 4.08 s  ClockTime = 5 s

Time = 83

DILUPBiCGStab:  Solving for omega, Initial residual = 5.43012e-06, Final residual = 9.21365e-11, No Iterations 5
ExecutionTime = 4.11 s  ClockTime = 5 s

Time = 84

DILUPBiCGStab:  Solving for omega, Initial residual = 5.33494e-06, Final residual = 8.97903e-11, No Iterations 5
ExecutionTime = 4.15 s  ClockTime = 5 s

Time = 85

DILUPBiCGStab:  Solving for omega, Initial residual = 5.24138e-06, Final residual = 8.75888e-11, No Iterations 5
ExecutionTime = 4.19 s  ClockTime = 5 s

Time = 86

DILUPBiCGStab:  Solving for omega, Initial residual = 5.14939e-06, Final residual = 8.55079e-11, No Iterations 5
ExecutionTime = 4.23 s  ClockTime = 5 s

Time = 87

DILUPBiCGStab:  Solving for omega, Initial residual = 5.05891e-06, Final residual = 8.35365e-11, No Iterations 5
ExecutionTime = 4.27 s  ClockTime = 5 s

Time = 88

DILUPBiCGStab:  Solving for omega, Initial residual = 4.9699e-06, Final residual = 8.16749e-11, No Iterations 5
ExecutionTime = 4.31 s  ClockTime = 5 s

Time = 89

DILUPBiCGStab:  Solving for omega, Initial residual = 4.88231e-06, Final residual = 7.98264e-11, No Iterations 5
ExecutionTime = 4.35 s  ClockTime = 5 s

Time = 90

DILUPBiCGStab:  Solving for omega, Initial residual = 4.79612e-06, Final residual = 7.79781e-11, No Iterations 5
ExecutionTime = 4.39 s  ClockTime = 5 s

Time = 91

DILUPBiCGStab:  Solving for omega, Initial residual = 4.71129e-06, Final residual = 7.60647e-11, No Iterations 5
ExecutionTime = 4.43 s  ClockTime = 5 s

Time = 92

DILUPBiCGStab:  Solving for omega, Initial residual = 4.6278e-06, Final residual = 7.41116e-11, No Iterations 5
ExecutionTime = 4.46 s  ClockTime = 5 s

Time = 93

DILUPBiCGStab:  Solving for omega, Initial residual = 4.54563e-06, Final residual = 7.21502e-11, No Iterations 5
ExecutionTime = 4.51 s  ClockTime = 5 s

Time = 94

DILUPBiCGStab:  Solving for omega, Initial residual = 4.46477e-06, Final residual = 7.02645e-11, No Iterations 5
ExecutionTime = 4.54 s  ClockTime = 5 s

Time = 95

DILUPBiCGStab:  Solving for omega, Initial residual = 4.38521e-06, Final residual = 6.85187e-11, No Iterations 5
ExecutionTime = 4.58 s  ClockTime = 5 s

Time = 96

DILUPBiCGStab:  Solving for omega, Initial residual = 4.30694e-06, Final residual = 6.69329e-11, No Iterations 5
ExecutionTime = 4.63 s  ClockTime = 5 s

Time = 97

DILUPBiCGStab:  Solving for omega, Initial residual = 4.22996e-06, Final residual = 6.55233e-11, No Iterations 5
ExecutionTime = 4.67 s  ClockTime = 5 s

Time = 98

DILUPBiCGStab:  Solving for omega, Initial residual = 4.15427e-06, Final residual = 6.43253e-11, No Iterations 5
ExecutionTime = 4.72 s  ClockTime = 6 s

Time = 99

DILUPBiCGStab:  Solving for omega, Initial residual = 4.07988e-06, Final residual = 6.33396e-11, No Iterations 5
ExecutionTime = 4.76 s  ClockTime = 6 s

Time = 100

DILUPBiCGStab:  Solving for omega, Initial residual = 4.00678e-06, Final residual = 6.29134e-11, No Iterations 5
ExecutionTime = 4.8 s  ClockTime = 6 s

Time = 101

DILUPBiCGStab:  Solving for omega, Initial residual = 3.935e-06, Final residual = 6.35002e-11, No Iterations 5
ExecutionTime = 4.84 s  ClockTime = 6 s

Time = 102

DILUPBiCGStab:  Solving for omega, Initial residual = 3.86452e-06, Final residual = 9.86579e-11, No Iterations 4
ExecutionTime = 4.89 s  ClockTime = 6 s

Time = 103

DILUPBiCGStab:  Solving for omega, Initial residual = 3.79537e-06, Final residual = 9.52211e-11, No Iterations 4
ExecutionTime = 4.93 s  ClockTime = 6 s

Time = 104

DILUPBiCGStab:  Solving for omega, Initial residual = 3.72754e-06, Final residual = 9.24293e-11, No Iterations 4
ExecutionTime = 4.98 s  ClockTime = 6 s

Time = 105

DILUPBiCGStab:  Solving for omega, Initial residual = 3.66104e-06, Final residual = 8.98611e-11, No Iterations 4
ExecutionTime = 5.03 s  ClockTime = 6 s

Time = 106

DILUPBiCGStab:  Solving for omega, Initial residual = 3.59587e-06, Final residual = 8.74584e-11, No Iterations 4
ExecutionTime = 5.09 s  ClockTime = 6 s

Time = 107

DILUPBiCGStab:  Solving for omega, Initial residual = 3.53203e-06, Final residual = 8.52159e-11, No Iterations 4
ExecutionTime = 5.14 s  ClockTime = 6 s

Time = 108

DILUPBiCGStab:  Solving for omega, Initial residual = 3.46952e-06, Final residual = 8.3077e-11, No Iterations 4
ExecutionTime = 5.19 s  ClockTime = 6 s

Time = 109

DILUPBiCGStab:  Solving for omega, Initial residual = 3.40833e-06, Final residual = 8.10204e-11, No Iterations 4
ExecutionTime = 5.26 s  ClockTime = 6 s

Time = 110

DILUPBiCGStab:  Solving for omega, Initial residual = 3.34846e-06, Final residual = 7.90262e-11, No Iterations 4
ExecutionTime = 5.31 s  ClockTime = 6 s

Time = 111

DILUPBiCGStab:  Solving for omega, Initial residual = 3.2899e-06, Final residual = 7.70801e-11, No Iterations 4
ExecutionTime = 5.35 s  ClockTime = 6 s

Time = 112

DILUPBiCGStab:  Solving for omega, Initial residual = 3.23263e-06, Final residual = 7.51691e-11, No Iterations 4
ExecutionTime = 5.39 s  ClockTime = 6 s

Time = 113

DILUPBiCGStab:  Solving for omega, Initial residual = 3.17664e-06, Final residual = 7.32808e-11, No Iterations 4
ExecutionTime = 5.43 s  ClockTime = 6 s

Time = 114

DILUPBiCGStab:  Solving for omega, Initial residual = 3.1219e-06, Final residual = 7.14363e-11, No Iterations 4
ExecutionTime = 5.48 s  ClockTime = 6 s

Time = 115

DILUPBiCGStab:  Solving for omega, Initial residual = 3.06841e-06, Final residual = 6.96245e-11, No Iterations 4
ExecutionTime = 5.52 s  ClockTime = 6 s

Time = 116

DILUPBiCGStab:  Solving for omega, Initial residual = 3.01613e-06, Final residual = 6.77956e-11, No Iterations 4
ExecutionTime = 5.56 s  ClockTime = 6 s

Time = 117

DILUPBiCGStab:  Solving for omega, Initial residual = 2.96504e-06, Final residual = 6.59437e-11, No Iterations 4
ExecutionTime = 5.6 s  ClockTime = 6 s

Time = 118

DILUPBiCGStab:  Solving for omega, Initial residual = 2.9151e-06, Final residual = 6.40688e-11, No Iterations 4
ExecutionTime = 5.64 s  ClockTime = 7 s

Time = 119

DILUPBiCGStab:  Solving for omega, Initial residual = 2.86629e-06, Final residual = 6.21767e-11, No Iterations 4
ExecutionTime = 5.73 s  ClockTime = 7 s

Time = 120

DILUPBiCGStab:  Solving for omega, Initial residual = 2.81858e-06, Final residual = 6.02749e-11, No Iterations 4
ExecutionTime = 5.77 s  ClockTime = 7 s

Time = 121

DILUPBiCGStab:  Solving for omega, Initial residual = 2.77194e-06, Final residual = 5.83702e-11, No Iterations 4
ExecutionTime = 5.82 s  ClockTime = 7 s

Time = 122

DILUPBiCGStab:  Solving for omega, Initial residual = 2.72633e-06, Final residual = 5.64669e-11, No Iterations 4
ExecutionTime = 5.87 s  ClockTime = 7 s

Time = 123

DILUPBiCGStab:  Solving for omega, Initial residual = 2.68172e-06, Final residual = 5.45707e-11, No Iterations 4
ExecutionTime = 5.91 s  ClockTime = 7 s

Time = 124

DILUPBiCGStab:  Solving for omega, Initial residual = 2.63807e-06, Final residual = 5.26906e-11, No Iterations 4
ExecutionTime = 5.95 s  ClockTime = 7 s

Time = 125

DILUPBiCGStab:  Solving for omega, Initial residual = 2.59536e-06, Final residual = 5.08297e-11, No Iterations 4
ExecutionTime = 5.99 s  ClockTime = 7 s

Time = 126

DILUPBiCGStab:  Solving for omega, Initial residual = 2.55356e-06, Final residual = 4.89898e-11, No Iterations 4
ExecutionTime = 6.04 s  ClockTime = 7 s

Time = 127

DILUPBiCGStab:  Solving for omega, Initial residual = 2.51262e-06, Final residual = 4.71765e-11, No Iterations 4
ExecutionTime = 6.07 s  ClockTime = 7 s

Time = 128

DILUPBiCGStab:  Solving for omega, Initial residual = 2.47254e-06, Final residual = 9.8647e-11, No Iterations 4
ExecutionTime = 6.11 s  ClockTime = 7 s

Time = 129

DILUPBiCGStab:  Solving for omega, Initial residual = 2.43326e-06, Final residual = 8.99283e-11, No Iterations 4
ExecutionTime = 6.14 s  ClockTime = 7 s

Time = 130

DILUPBiCGStab:  Solving for omega, Initial residual = 2.39477e-06, Final residual = 8.63747e-11, No Iterations 4
ExecutionTime = 6.18 s  ClockTime = 7 s

Time = 131

DILUPBiCGStab:  Solving for omega, Initial residual = 2.35704e-06, Final residual = 8.3455e-11, No Iterations 4
ExecutionTime = 6.22 s  ClockTime = 7 s

Time = 132

DILUPBiCGStab:  Solving for omega, Initial residual = 2.32004e-06, Final residual = 8.06668e-11, No Iterations 4
ExecutionTime = 6.26 s  ClockTime = 7 s

Time = 133

DILUPBiCGStab:  Solving for omega, Initial residual = 2.28374e-06, Final residual = 7.79459e-11, No Iterations 4
ExecutionTime = 6.3 s  ClockTime = 7 s

Time = 134

DILUPBiCGStab:  Solving for omega, Initial residual = 2.24812e-06, Final residual = 7.52845e-11, No Iterations 4
ExecutionTime = 6.33 s  ClockTime = 7 s

Time = 135

DILUPBiCGStab:  Solving for omega, Initial residual = 2.21316e-06, Final residual = 7.26847e-11, No Iterations 4
ExecutionTime = 6.37 s  ClockTime = 7 s

Time = 136

DILUPBiCGStab:  Solving for omega, Initial residual = 2.17882e-06, Final residual = 7.01505e-11, No Iterations 4
ExecutionTime = 6.4 s  ClockTime = 7 s

Time = 137

DILUPBiCGStab:  Solving for omega, Initial residual = 2.14509e-06, Final residual = 6.76895e-11, No Iterations 4
ExecutionTime = 6.43 s  ClockTime = 7 s

Time = 138

DILUPBiCGStab:  Solving for omega, Initial residual = 2.11195e-06, Final residual = 6.53063e-11, No Iterations 4
ExecutionTime = 6.46 s  ClockTime = 7 s

Time = 139

DILUPBiCGStab:  Solving for omega, Initial residual = 2.07937e-06, Final residual = 6.30049e-11, No Iterations 4
ExecutionTime = 6.49 s  ClockTime = 7 s

Time = 140

DILUPBiCGStab:  Solving for omega, Initial residual = 2.04734e-06, Final residual = 6.07905e-11, No Iterations 4
ExecutionTime = 6.52 s  ClockTime = 7 s

Time = 141

DILUPBiCGStab:  Solving for omega, Initial residual = 2.01584e-06, Final residual = 5.86668e-11, No Iterations 4
ExecutionTime = 6.56 s  ClockTime = 7 s

Time = 142

DILUPBiCGStab:  Solving for omega, Initial residual = 1.98485e-06, Final residual = 5.66361e-11, No Iterations 4
ExecutionTime = 6.59 s  ClockTime = 8 s

Time = 143

DILUPBiCGStab:  Solving for omega, Initial residual = 1.95435e-06, Final residual = 5.47004e-11, No Iterations 4
ExecutionTime = 6.63 s  ClockTime = 8 s

Time = 144

DILUPBiCGStab:  Solving for omega, Initial residual = 1.92434e-06, Final residual = 5.28604e-11, No Iterations 4
ExecutionTime = 6.68 s  ClockTime = 8 s

Time = 145

DILUPBiCGStab:  Solving for omega, Initial residual = 1.89479e-06, Final residual = 5.11171e-11, No Iterations 4
ExecutionTime = 6.71 s  ClockTime = 8 s

Time = 146

DILUPBiCGStab:  Solving for omega, Initial residual = 1.86569e-06, Final residual = 4.94683e-11, No Iterations 4
ExecutionTime = 6.74 s  ClockTime = 8 s

Time = 147

DILUPBiCGStab:  Solving for omega, Initial residual = 1.83702e-06, Final residual = 4.79143e-11, No Iterations 4
ExecutionTime = 6.78 s  ClockTime = 8 s

Time = 148

DILUPBiCGStab:  Solving for omega, Initial residual = 1.80878e-06, Final residual = 4.64522e-11, No Iterations 4
ExecutionTime = 6.82 s  ClockTime = 8 s

Time = 149

DILUPBiCGStab:  Solving for omega, Initial residual = 1.78095e-06, Final residual = 4.5079e-11, No Iterations 4
ExecutionTime = 6.85 s  ClockTime = 8 s

Time = 150

DILUPBiCGStab:  Solving for omega, Initial residual = 1.75352e-06, Final residual = 4.37908e-11, No Iterations 4
ExecutionTime = 6.89 s  ClockTime = 8 s

Time = 151

DILUPBiCGStab:  Solving for omega, Initial residual = 1.72648e-06, Final residual = 4.25844e-11, No Iterations 4
ExecutionTime = 6.92 s  ClockTime = 8 s

Time = 152

DILUPBiCGStab:  Solving for omega, Initial residual = 1.69982e-06, Final residual = 4.1456e-11, No Iterations 4
ExecutionTime = 6.96 s  ClockTime = 8 s

Time = 153

DILUPBiCGStab:  Solving for omega, Initial residual = 1.67353e-06, Final residual = 4.04015e-11, No Iterations 4
ExecutionTime = 6.99 s  ClockTime = 8 s

Time = 154

DILUPBiCGStab:  Solving for omega, Initial residual = 1.64759e-06, Final residual = 3.94166e-11, No Iterations 4
ExecutionTime = 7.02 s  ClockTime = 8 s

Time = 155

DILUPBiCGStab:  Solving for omega, Initial residual = 1.62201e-06, Final residual = 3.84975e-11, No Iterations 4
ExecutionTime = 7.05 s  ClockTime = 8 s

Time = 156

DILUPBiCGStab:  Solving for omega, Initial residual = 1.59678e-06, Final residual = 3.76404e-11, No Iterations 4
ExecutionTime = 7.08 s  ClockTime = 8 s

Time = 157

DILUPBiCGStab:  Solving for omega, Initial residual = 1.57187e-06, Final residual = 3.684e-11, No Iterations 4
ExecutionTime = 7.12 s  ClockTime = 8 s

Time = 158

DILUPBiCGStab:  Solving for omega, Initial residual = 1.5473e-06, Final residual = 3.60932e-11, No Iterations 4
ExecutionTime = 7.16 s  ClockTime = 8 s

Time = 159

DILUPBiCGStab:  Solving for omega, Initial residual = 1.52305e-06, Final residual = 3.53947e-11, No Iterations 4
ExecutionTime = 7.19 s  ClockTime = 8 s

Time = 160

DILUPBiCGStab:  Solving for omega, Initial residual = 1.49911e-06, Final residual = 3.474e-11, No Iterations 4
ExecutionTime = 7.23 s  ClockTime = 8 s

Time = 161

DILUPBiCGStab:  Solving for omega, Initial residual = 1.47549e-06, Final residual = 3.41252e-11, No Iterations 4
ExecutionTime = 7.26 s  ClockTime = 8 s

Time = 162

DILUPBiCGStab:  Solving for omega, Initial residual = 1.45217e-06, Final residual = 3.35463e-11, No Iterations 4
ExecutionTime = 7.29 s  ClockTime = 8 s

Time = 163

DILUPBiCGStab:  Solving for omega, Initial residual = 1.42915e-06, Final residual = 3.29992e-11, No Iterations 4
ExecutionTime = 7.32 s  ClockTime = 8 s

Time = 164

DILUPBiCGStab:  Solving for omega, Initial residual = 1.40643e-06, Final residual = 3.24818e-11, No Iterations 4
ExecutionTime = 7.35 s  ClockTime = 8 s

Time = 165

DILUPBiCGStab:  Solving for omega, Initial residual = 1.384e-06, Final residual = 3.19903e-11, No Iterations 4
ExecutionTime = 7.39 s  ClockTime = 8 s

Time = 166

DILUPBiCGStab:  Solving for omega, Initial residual = 1.36185e-06, Final residual = 3.15223e-11, No Iterations 4
ExecutionTime = 7.43 s  ClockTime = 9 s

Time = 167

DILUPBiCGStab:  Solving for omega, Initial residual = 1.33999e-06, Final residual = 3.10753e-11, No Iterations 4
ExecutionTime = 7.46 s  ClockTime = 9 s

Time = 168

DILUPBiCGStab:  Solving for omega, Initial residual = 1.31842e-06, Final residual = 3.06467e-11, No Iterations 4
ExecutionTime = 7.5 s  ClockTime = 9 s

Time = 169

DILUPBiCGStab:  Solving for omega, Initial residual = 1.29712e-06, Final residual = 3.02351e-11, No Iterations 4
ExecutionTime = 7.55 s  ClockTime = 9 s

Time = 170

DILUPBiCGStab:  Solving for omega, Initial residual = 1.27609e-06, Final residual = 2.98381e-11, No Iterations 4
ExecutionTime = 7.58 s  ClockTime = 9 s

Time = 171

DILUPBiCGStab:  Solving for omega, Initial residual = 1.25534e-06, Final residual = 2.94545e-11, No Iterations 4
ExecutionTime = 7.62 s  ClockTime = 9 s

Time = 172

DILUPBiCGStab:  Solving for omega, Initial residual = 1.23486e-06, Final residual = 2.90822e-11, No Iterations 4
ExecutionTime = 7.65 s  ClockTime = 9 s

Time = 173

DILUPBiCGStab:  Solving for omega, Initial residual = 1.21464e-06, Final residual = 2.87202e-11, No Iterations 4
ExecutionTime = 7.69 s  ClockTime = 9 s

Time = 174

DILUPBiCGStab:  Solving for omega, Initial residual = 1.19469e-06, Final residual = 2.83673e-11, No Iterations 4
ExecutionTime = 7.72 s  ClockTime = 9 s

Time = 175

DILUPBiCGStab:  Solving for omega, Initial residual = 1.175e-06, Final residual = 2.80223e-11, No Iterations 4
ExecutionTime = 7.75 s  ClockTime = 9 s

Time = 176

DILUPBiCGStab:  Solving for omega, Initial residual = 1.15557e-06, Final residual = 2.76841e-11, No Iterations 4
ExecutionTime = 7.78 s  ClockTime = 9 s

Time = 177

DILUPBiCGStab:  Solving for omega, Initial residual = 1.1364e-06, Final residual = 2.73525e-11, No Iterations 4
ExecutionTime = 7.81 s  ClockTime = 9 s

Time = 178

DILUPBiCGStab:  Solving for omega, Initial residual = 1.11748e-06, Final residual = 2.7026e-11, No Iterations 4
ExecutionTime = 7.84 s  ClockTime = 9 s

Time = 179

DILUPBiCGStab:  Solving for omega, Initial residual = 1.09882e-06, Final residual = 2.67039e-11, No Iterations 4
ExecutionTime = 7.87 s  ClockTime = 9 s

Time = 180

DILUPBiCGStab:  Solving for omega, Initial residual = 1.08041e-06, Final residual = 2.6386e-11, No Iterations 4
ExecutionTime = 7.9 s  ClockTime = 9 s

Time = 181

DILUPBiCGStab:  Solving for omega, Initial residual = 1.06224e-06, Final residual = 2.60719e-11, No Iterations 4
ExecutionTime = 7.93 s  ClockTime = 9 s

Time = 182

DILUPBiCGStab:  Solving for omega, Initial residual = 1.04433e-06, Final residual = 2.57605e-11, No Iterations 4
ExecutionTime = 7.98 s  ClockTime = 9 s

Time = 183

DILUPBiCGStab:  Solving for omega, Initial residual = 1.02666e-06, Final residual = 2.54512e-11, No Iterations 4
ExecutionTime = 8.01 s  ClockTime = 9 s

Time = 184

DILUPBiCGStab:  Solving for omega, Initial residual = 1.00923e-06, Final residual = 2.51442e-11, No Iterations 4
ExecutionTime = 8.04 s  ClockTime = 9 s

Time = 185

DILUPBiCGStab:  Solving for omega, Initial residual = 9.92048e-07, Final residual = 2.48397e-11, No Iterations 4
ExecutionTime = 8.07 s  ClockTime = 9 s

Time = 186

DILUPBiCGStab:  Solving for omega, Initial residual = 9.75103e-07, Final residual = 2.45367e-11, No Iterations 4
ExecutionTime = 8.1 s  ClockTime = 9 s

Time = 187

DILUPBiCGStab:  Solving for omega, Initial residual = 9.58395e-07, Final residual = 2.42353e-11, No Iterations 4
ExecutionTime = 8.13 s  ClockTime = 9 s

Time = 188

DILUPBiCGStab:  Solving for omega, Initial residual = 9.41923e-07, Final residual = 2.39351e-11, No Iterations 4
ExecutionTime = 8.16 s  ClockTime = 9 s

Time = 189

DILUPBiCGStab:  Solving for omega, Initial residual = 9.25685e-07, Final residual = 2.36364e-11, No Iterations 4
ExecutionTime = 8.19 s  ClockTime = 9 s

Time = 190

DILUPBiCGStab:  Solving for omega, Initial residual = 9.09678e-07, Final residual = 2.33395e-11, No Iterations 4
ExecutionTime = 8.22 s  ClockTime = 10 s

Time = 191

DILUPBiCGStab:  Solving for omega, Initial residual = 8.93901e-07, Final residual = 2.30435e-11, No Iterations 4
ExecutionTime = 8.25 s  ClockTime = 10 s

Time = 192

DILUPBiCGStab:  Solving for omega, Initial residual = 8.78352e-07, Final residual = 2.27482e-11, No Iterations 4
ExecutionTime = 8.29 s  ClockTime = 10 s

Time = 193

DILUPBiCGStab:  Solving for omega, Initial residual = 8.63029e-07, Final residual = 2.2454e-11, No Iterations 4
ExecutionTime = 8.32 s  ClockTime = 10 s

Time = 194

DILUPBiCGStab:  Solving for omega, Initial residual = 8.4793e-07, Final residual = 2.21607e-11, No Iterations 4
ExecutionTime = 8.37 s  ClockTime = 10 s

Time = 195

DILUPBiCGStab:  Solving for omega, Initial residual = 8.33052e-07, Final residual = 2.18686e-11, No Iterations 4
ExecutionTime = 8.41 s  ClockTime = 10 s

Time = 196

DILUPBiCGStab:  Solving for omega, Initial residual = 8.18395e-07, Final residual = 2.15782e-11, No Iterations 4
ExecutionTime = 8.44 s  ClockTime = 10 s

Time = 197

DILUPBiCGStab:  Solving for omega, Initial residual = 8.03955e-07, Final residual = 2.12891e-11, No Iterations 4
ExecutionTime = 8.48 s  ClockTime = 10 s

Time = 198

DILUPBiCGStab:  Solving for omega, Initial residual = 7.89732e-07, Final residual = 2.10012e-11, No Iterations 4
ExecutionTime = 8.51 s  ClockTime = 10 s

Time = 199

DILUPBiCGStab:  Solving for omega, Initial residual = 7.75722e-07, Final residual = 2.07144e-11, No Iterations 4
ExecutionTime = 8.54 s  ClockTime = 10 s

Time = 200

DILUPBiCGStab:  Solving for omega, Initial residual = 7.61924e-07, Final residual = 2.04292e-11, No Iterations 4
ExecutionTime = 8.57 s  ClockTime = 10 s

Time = 201

DILUPBiCGStab:  Solving for omega, Initial residual = 7.48336e-07, Final residual = 2.01453e-11, No Iterations 4
ExecutionTime = 8.6 s  ClockTime = 10 s

Time = 202

DILUPBiCGStab:  Solving for omega, Initial residual = 7.34956e-07, Final residual = 1.9863e-11, No Iterations 4
ExecutionTime = 8.64 s  ClockTime = 10 s

Time = 203

DILUPBiCGStab:  Solving for omega, Initial residual = 7.21781e-07, Final residual = 1.95824e-11, No Iterations 4
ExecutionTime = 8.66 s  ClockTime = 10 s

Time = 204

DILUPBiCGStab:  Solving for omega, Initial residual = 7.0881e-07, Final residual = 1.93037e-11, No Iterations 4
ExecutionTime = 8.69 s  ClockTime = 10 s

Time = 205

DILUPBiCGStab:  Solving for omega, Initial residual = 6.9604e-07, Final residual = 1.9027e-11, No Iterations 4
ExecutionTime = 8.73 s  ClockTime = 10 s

Time = 206

DILUPBiCGStab:  Solving for omega, Initial residual = 6.83469e-07, Final residual = 9.88542e-11, No Iterations 3
ExecutionTime = 8.76 s  ClockTime = 10 s

Time = 207

DILUPBiCGStab:  Solving for omega, Initial residual = 6.71098e-07, Final residual = 9.87733e-11, No Iterations 3
ExecutionTime = 8.79 s  ClockTime = 10 s

Time = 208

DILUPBiCGStab:  Solving for omega, Initial residual = 6.58922e-07, Final residual = 9.74186e-11, No Iterations 3
ExecutionTime = 8.82 s  ClockTime = 10 s

Time = 209

DILUPBiCGStab:  Solving for omega, Initial residual = 6.46938e-07, Final residual = 9.59646e-11, No Iterations 3
ExecutionTime = 8.85 s  ClockTime = 10 s

Time = 210

DILUPBiCGStab:  Solving for omega, Initial residual = 6.35145e-07, Final residual = 9.45146e-11, No Iterations 3
ExecutionTime = 8.89 s  ClockTime = 10 s

Time = 211

DILUPBiCGStab:  Solving for omega, Initial residual = 6.23541e-07, Final residual = 9.30784e-11, No Iterations 3
ExecutionTime = 8.93 s  ClockTime = 10 s

Time = 212

DILUPBiCGStab:  Solving for omega, Initial residual = 6.12123e-07, Final residual = 9.16564e-11, No Iterations 3
ExecutionTime = 8.96 s  ClockTime = 10 s

Time = 213

DILUPBiCGStab:  Solving for omega, Initial residual = 6.00889e-07, Final residual = 9.02479e-11, No Iterations 3
ExecutionTime = 8.99 s  ClockTime = 10 s

Time = 214

DILUPBiCGStab:  Solving for omega, Initial residual = 5.89837e-07, Final residual = 8.88532e-11, No Iterations 3
ExecutionTime = 9.02 s  ClockTime = 10 s

Time = 215

DILUPBiCGStab:  Solving for omega, Initial residual = 5.78965e-07, Final residual = 8.7472e-11, No Iterations 3
ExecutionTime = 9.05 s  ClockTime = 10 s

Time = 216

DILUPBiCGStab:  Solving for omega, Initial residual = 5.6827e-07, Final residual = 8.61044e-11, No Iterations 3
ExecutionTime = 9.09 s  ClockTime = 11 s

Time = 217

DILUPBiCGStab:  Solving for omega, Initial residual = 5.57751e-07, Final residual = 8.47503e-11, No Iterations 3
ExecutionTime = 9.11 s  ClockTime = 11 s

Time = 218

DILUPBiCGStab:  Solving for omega, Initial residual = 5.47405e-07, Final residual = 8.34096e-11, No Iterations 3
ExecutionTime = 9.14 s  ClockTime = 11 s

Time = 219

DILUPBiCGStab:  Solving for omega, Initial residual = 5.37231e-07, Final residual = 8.20823e-11, No Iterations 3
ExecutionTime = 9.19 s  ClockTime = 11 s

Time = 220

DILUPBiCGStab:  Solving for omega, Initial residual = 5.27225e-07, Final residual = 8.07687e-11, No Iterations 3
ExecutionTime = 9.22 s  ClockTime = 11 s

Time = 221

DILUPBiCGStab:  Solving for omega, Initial residual = 5.17386e-07, Final residual = 7.94688e-11, No Iterations 3
ExecutionTime = 9.25 s  ClockTime = 11 s

Time = 222

DILUPBiCGStab:  Solving for omega, Initial residual = 5.07713e-07, Final residual = 7.81826e-11, No Iterations 3
ExecutionTime = 9.28 s  ClockTime = 11 s

Time = 223

DILUPBiCGStab:  Solving for omega, Initial residual = 4.98202e-07, Final residual = 7.69105e-11, No Iterations 3
ExecutionTime = 9.32 s  ClockTime = 11 s

Time = 224

DILUPBiCGStab:  Solving for omega, Initial residual = 4.88851e-07, Final residual = 7.56527e-11, No Iterations 3
ExecutionTime = 9.35 s  ClockTime = 11 s

Time = 225

DILUPBiCGStab:  Solving for omega, Initial residual = 4.79659e-07, Final residual = 7.44093e-11, No Iterations 3
ExecutionTime = 9.39 s  ClockTime = 11 s

Time = 226

DILUPBiCGStab:  Solving for omega, Initial residual = 4.70623e-07, Final residual = 7.31803e-11, No Iterations 3
ExecutionTime = 9.42 s  ClockTime = 11 s

Time = 227

DILUPBiCGStab:  Solving for omega, Initial residual = 4.61742e-07, Final residual = 7.19656e-11, No Iterations 3
ExecutionTime = 9.46 s  ClockTime = 11 s

Time = 228

DILUPBiCGStab:  Solving for omega, Initial residual = 4.53012e-07, Final residual = 7.07655e-11, No Iterations 3
ExecutionTime = 9.49 s  ClockTime = 11 s

Time = 229

DILUPBiCGStab:  Solving for omega, Initial residual = 4.44433e-07, Final residual = 6.95797e-11, No Iterations 3
ExecutionTime = 9.53 s  ClockTime = 11 s

Time = 230

DILUPBiCGStab:  Solving for omega, Initial residual = 4.36001e-07, Final residual = 6.84086e-11, No Iterations 3
ExecutionTime = 9.56 s  ClockTime = 11 s

Time = 231

DILUPBiCGStab:  Solving for omega, Initial residual = 4.27716e-07, Final residual = 6.7252e-11, No Iterations 3
ExecutionTime = 9.59 s  ClockTime = 11 s

Time = 232

DILUPBiCGStab:  Solving for omega, Initial residual = 4.19574e-07, Final residual = 6.611e-11, No Iterations 3
ExecutionTime = 9.62 s  ClockTime = 11 s

Time = 233

DILUPBiCGStab:  Solving for omega, Initial residual = 4.11575e-07, Final residual = 6.49822e-11, No Iterations 3
ExecutionTime = 9.66 s  ClockTime = 11 s

Time = 234

DILUPBiCGStab:  Solving for omega, Initial residual = 4.03715e-07, Final residual = 6.38694e-11, No Iterations 3
ExecutionTime = 9.69 s  ClockTime = 11 s

Time = 235

DILUPBiCGStab:  Solving for omega, Initial residual = 3.95992e-07, Final residual = 6.27709e-11, No Iterations 3
ExecutionTime = 9.72 s  ClockTime = 11 s

Time = 236

DILUPBiCGStab:  Solving for omega, Initial residual = 3.88406e-07, Final residual = 6.16868e-11, No Iterations 3
ExecutionTime = 9.75 s  ClockTime = 11 s

Time = 237

DILUPBiCGStab:  Solving for omega, Initial residual = 3.80954e-07, Final residual = 6.0617e-11, No Iterations 3
ExecutionTime = 9.78 s  ClockTime = 11 s

Time = 238

DILUPBiCGStab:  Solving for omega, Initial residual = 3.73633e-07, Final residual = 5.95617e-11, No Iterations 3
ExecutionTime = 9.81 s  ClockTime = 11 s

Time = 239

DILUPBiCGStab:  Solving for omega, Initial residual = 3.66443e-07, Final residual = 5.85209e-11, No Iterations 3
ExecutionTime = 9.85 s  ClockTime = 11 s

Time = 240

DILUPBiCGStab:  Solving for omega, Initial residual = 3.5938e-07, Final residual = 5.74941e-11, No Iterations 3
ExecutionTime = 9.88 s  ClockTime = 12 s

Time = 241

DILUPBiCGStab:  Solving for omega, Initial residual = 3.52444e-07, Final residual = 5.64815e-11, No Iterations 3
ExecutionTime = 9.91 s  ClockTime = 12 s

Time = 242

DILUPBiCGStab:  Solving for omega, Initial residual = 3.45632e-07, Final residual = 5.54829e-11, No Iterations 3
ExecutionTime = 9.94 s  ClockTime = 12 s

Time = 243

DILUPBiCGStab:  Solving for omega, Initial residual = 3.38942e-07, Final residual = 9.92726e-11, No Iterations 3
ExecutionTime = 9.97 s  ClockTime = 12 s

Time = 244

DILUPBiCGStab:  Solving for omega, Initial residual = 3.32373e-07, Final residual = 7.82135e-11, No Iterations 3
ExecutionTime = 10.01 s  ClockTime = 12 s

Time = 245

DILUPBiCGStab:  Solving for omega, Initial residual = 3.25923e-07, Final residual = 7.05734e-11, No Iterations 3
ExecutionTime = 10.04 s  ClockTime = 12 s

Time = 246

DILUPBiCGStab:  Solving for omega, Initial residual = 3.19589e-07, Final residual = 6.81366e-11, No Iterations 3
ExecutionTime = 10.07 s  ClockTime = 12 s

Time = 247

DILUPBiCGStab:  Solving for omega, Initial residual = 3.13371e-07, Final residual = 6.66625e-11, No Iterations 3
ExecutionTime = 10.1 s  ClockTime = 12 s

Time = 248

DILUPBiCGStab:  Solving for omega, Initial residual = 3.07265e-07, Final residual = 6.53771e-11, No Iterations 3
ExecutionTime = 10.13 s  ClockTime = 12 s

Time = 249

DILUPBiCGStab:  Solving for omega, Initial residual = 3.01271e-07, Final residual = 6.41607e-11, No Iterations 3
ExecutionTime = 10.17 s  ClockTime = 12 s

Time = 250

DILUPBiCGStab:  Solving for omega, Initial residual = 2.95386e-07, Final residual = 6.29831e-11, No Iterations 3
ExecutionTime = 10.2 s  ClockTime = 12 s

Time = 251

DILUPBiCGStab:  Solving for omega, Initial residual = 2.89609e-07, Final residual = 6.18327e-11, No Iterations 3
ExecutionTime = 10.24 s  ClockTime = 12 s

Time = 252

DILUPBiCGStab:  Solving for omega, Initial residual = 2.83939e-07, Final residual = 6.07046e-11, No Iterations 3
ExecutionTime = 10.28 s  ClockTime = 12 s

Time = 253

DILUPBiCGStab:  Solving for omega, Initial residual = 2.78373e-07, Final residual = 5.95964e-11, No Iterations 3
ExecutionTime = 10.31 s  ClockTime = 12 s

Time = 254

DILUPBiCGStab:  Solving for omega, Initial residual = 2.72909e-07, Final residual = 5.85068e-11, No Iterations 3
ExecutionTime = 10.35 s  ClockTime = 12 s

Time = 255

DILUPBiCGStab:  Solving for omega, Initial residual = 2.67547e-07, Final residual = 5.74351e-11, No Iterations 3
ExecutionTime = 10.38 s  ClockTime = 12 s

Time = 256

DILUPBiCGStab:  Solving for omega, Initial residual = 2.62284e-07, Final residual = 5.63806e-11, No Iterations 3
ExecutionTime = 10.41 s  ClockTime = 12 s

Time = 257

DILUPBiCGStab:  Solving for omega, Initial residual = 2.57119e-07, Final residual = 5.53428e-11, No Iterations 3
ExecutionTime = 10.44 s  ClockTime = 12 s

Time = 258

DILUPBiCGStab:  Solving for omega, Initial residual = 2.5205e-07, Final residual = 5.43216e-11, No Iterations 3
ExecutionTime = 10.47 s  ClockTime = 12 s

Time = 259

DILUPBiCGStab:  Solving for omega, Initial residual = 2.47076e-07, Final residual = 5.33169e-11, No Iterations 3
ExecutionTime = 10.5 s  ClockTime = 12 s

Time = 260

DILUPBiCGStab:  Solving for omega, Initial residual = 2.42195e-07, Final residual = 5.23284e-11, No Iterations 3
ExecutionTime = 10.54 s  ClockTime = 12 s

Time = 261

DILUPBiCGStab:  Solving for omega, Initial residual = 2.37405e-07, Final residual = 5.13559e-11, No Iterations 3
ExecutionTime = 10.58 s  ClockTime = 12 s

Time = 262

DILUPBiCGStab:  Solving for omega, Initial residual = 2.32706e-07, Final residual = 5.03992e-11, No Iterations 3
ExecutionTime = 10.61 s  ClockTime = 12 s

Time = 263

DILUPBiCGStab:  Solving for omega, Initial residual = 2.28095e-07, Final residual = 4.9458e-11, No Iterations 3
ExecutionTime = 10.65 s  ClockTime = 12 s

Time = 264

DILUPBiCGStab:  Solving for omega, Initial residual = 2.2357e-07, Final residual = 4.85322e-11, No Iterations 3
ExecutionTime = 10.68 s  ClockTime = 12 s

Time = 265

DILUPBiCGStab:  Solving for omega, Initial residual = 2.19132e-07, Final residual = 4.76217e-11, No Iterations 3
ExecutionTime = 10.71 s  ClockTime = 13 s

Time = 266

DILUPBiCGStab:  Solving for omega, Initial residual = 2.14777e-07, Final residual = 4.67262e-11, No Iterations 3
ExecutionTime = 10.74 s  ClockTime = 13 s

Time = 267

DILUPBiCGStab:  Solving for omega, Initial residual = 2.10505e-07, Final residual = 4.58456e-11, No Iterations 3
ExecutionTime = 10.77 s  ClockTime = 13 s

Time = 268

DILUPBiCGStab:  Solving for omega, Initial residual = 2.06314e-07, Final residual = 4.49798e-11, No Iterations 3
ExecutionTime = 10.81 s  ClockTime = 13 s

Time = 269

DILUPBiCGStab:  Solving for omega, Initial residual = 2.02203e-07, Final residual = 4.41285e-11, No Iterations 3
ExecutionTime = 10.85 s  ClockTime = 13 s

Time = 270

DILUPBiCGStab:  Solving for omega, Initial residual = 1.9817e-07, Final residual = 4.32917e-11, No Iterations 3
ExecutionTime = 10.9 s  ClockTime = 13 s

Time = 271

DILUPBiCGStab:  Solving for omega, Initial residual = 1.94214e-07, Final residual = 4.2469e-11, No Iterations 3
ExecutionTime = 10.93 s  ClockTime = 13 s

Time = 272

DILUPBiCGStab:  Solving for omega, Initial residual = 1.90334e-07, Final residual = 4.16604e-11, No Iterations 3
ExecutionTime = 10.96 s  ClockTime = 13 s

Time = 273

DILUPBiCGStab:  Solving for omega, Initial residual = 1.86529e-07, Final residual = 4.08657e-11, No Iterations 3
ExecutionTime = 10.99 s  ClockTime = 13 s

Time = 274

DILUPBiCGStab:  Solving for omega, Initial residual = 1.82796e-07, Final residual = 4.00846e-11, No Iterations 3
ExecutionTime = 11.03 s  ClockTime = 13 s

Time = 275

DILUPBiCGStab:  Solving for omega, Initial residual = 1.79135e-07, Final residual = 3.9317e-11, No Iterations 3
ExecutionTime = 11.06 s  ClockTime = 13 s

Time = 276

DILUPBiCGStab:  Solving for omega, Initial residual = 1.75545e-07, Final residual = 3.85628e-11, No Iterations 3
ExecutionTime = 11.09 s  ClockTime = 13 s

Time = 277

DILUPBiCGStab:  Solving for omega, Initial residual = 1.72024e-07, Final residual = 3.78218e-11, No Iterations 3
ExecutionTime = 11.12 s  ClockTime = 13 s

Time = 278

DILUPBiCGStab:  Solving for omega, Initial residual = 1.68571e-07, Final residual = 3.70937e-11, No Iterations 3
ExecutionTime = 11.16 s  ClockTime = 13 s

Time = 279

DILUPBiCGStab:  Solving for omega, Initial residual = 1.65185e-07, Final residual = 3.63784e-11, No Iterations 3
ExecutionTime = 11.19 s  ClockTime = 13 s

Time = 280

DILUPBiCGStab:  Solving for omega, Initial residual = 1.61864e-07, Final residual = 3.56758e-11, No Iterations 3
ExecutionTime = 11.22 s  ClockTime = 13 s

Time = 281

DILUPBiCGStab:  Solving for omega, Initial residual = 1.58608e-07, Final residual = 3.49856e-11, No Iterations 3
ExecutionTime = 11.26 s  ClockTime = 13 s

Time = 282

DILUPBiCGStab:  Solving for omega, Initial residual = 1.55415e-07, Final residual = 3.43076e-11, No Iterations 3
ExecutionTime = 11.29 s  ClockTime = 13 s

Time = 283

DILUPBiCGStab:  Solving for omega, Initial residual = 1.52284e-07, Final residual = 3.36418e-11, No Iterations 3
ExecutionTime = 11.33 s  ClockTime = 13 s

Time = 284

DILUPBiCGStab:  Solving for omega, Initial residual = 1.49214e-07, Final residual = 3.29878e-11, No Iterations 3
ExecutionTime = 11.36 s  ClockTime = 13 s

Time = 285

DILUPBiCGStab:  Solving for omega, Initial residual = 1.46204e-07, Final residual = 3.23457e-11, No Iterations 3
ExecutionTime = 11.41 s  ClockTime = 13 s

Time = 286

DILUPBiCGStab:  Solving for omega, Initial residual = 1.43253e-07, Final residual = 3.17151e-11, No Iterations 3
ExecutionTime = 11.44 s  ClockTime = 13 s

Time = 287

DILUPBiCGStab:  Solving for omega, Initial residual = 1.4036e-07, Final residual = 3.1096e-11, No Iterations 3
ExecutionTime = 11.48 s  ClockTime = 13 s

Time = 288

DILUPBiCGStab:  Solving for omega, Initial residual = 1.37523e-07, Final residual = 3.04881e-11, No Iterations 3
ExecutionTime = 11.51 s  ClockTime = 13 s

Time = 289

DILUPBiCGStab:  Solving for omega, Initial residual = 1.34742e-07, Final residual = 2.98913e-11, No Iterations 3
ExecutionTime = 11.56 s  ClockTime = 13 s

Time = 290

DILUPBiCGStab:  Solving for omega, Initial residual = 1.32016e-07, Final residual = 2.93055e-11, No Iterations 3
ExecutionTime = 11.6 s  ClockTime = 13 s

Time = 291

DILUPBiCGStab:  Solving for omega, Initial residual = 1.29343e-07, Final residual = 2.87303e-11, No Iterations 3
ExecutionTime = 11.63 s  ClockTime = 14 s

Time = 292

DILUPBiCGStab:  Solving for omega, Initial residual = 1.26723e-07, Final residual = 2.81658e-11, No Iterations 3
ExecutionTime = 11.66 s  ClockTime = 14 s

Time = 293

DILUPBiCGStab:  Solving for omega, Initial residual = 1.24154e-07, Final residual = 2.76116e-11, No Iterations 3
ExecutionTime = 11.7 s  ClockTime = 14 s

Time = 294

DILUPBiCGStab:  Solving for omega, Initial residual = 1.21636e-07, Final residual = 2.70678e-11, No Iterations 3
ExecutionTime = 11.74 s  ClockTime = 14 s

Time = 295

DILUPBiCGStab:  Solving for omega, Initial residual = 1.19168e-07, Final residual = 2.65341e-11, No Iterations 3
ExecutionTime = 11.77 s  ClockTime = 14 s

Time = 296

DILUPBiCGStab:  Solving for omega, Initial residual = 1.16749e-07, Final residual = 2.60102e-11, No Iterations 3
ExecutionTime = 11.81 s  ClockTime = 14 s

Time = 297

DILUPBiCGStab:  Solving for omega, Initial residual = 1.14377e-07, Final residual = 2.54962e-11, No Iterations 3
ExecutionTime = 11.84 s  ClockTime = 14 s

Time = 298

DILUPBiCGStab:  Solving for omega, Initial residual = 1.12053e-07, Final residual = 2.49917e-11, No Iterations 3
ExecutionTime = 11.87 s  ClockTime = 14 s

Time = 299

DILUPBiCGStab:  Solving for omega, Initial residual = 1.09775e-07, Final residual = 2.44966e-11, No Iterations 3
ExecutionTime = 11.92 s  ClockTime = 14 s

Time = 300

DILUPBiCGStab:  Solving for omega, Initial residual = 1.07542e-07, Final residual = 2.40109e-11, No Iterations 3
ExecutionTime = 11.95 s  ClockTime = 14 s

Time = 301

DILUPBiCGStab:  Solving for omega, Initial residual = 1.05353e-07, Final residual = 2.35342e-11, No Iterations 3
ExecutionTime = 11.99 s  ClockTime = 14 s

Time = 302

DILUPBiCGStab:  Solving for omega, Initial residual = 1.03208e-07, Final residual = 2.30665e-11, No Iterations 3
ExecutionTime = 12.01 s  ClockTime = 14 s

Time = 303

DILUPBiCGStab:  Solving for omega, Initial residual = 1.01105e-07, Final residual = 2.26077e-11, No Iterations 3
ExecutionTime = 12.04 s  ClockTime = 14 s

Time = 304

DILUPBiCGStab:  Solving for omega, Initial residual = 9.90447e-08, Final residual = 2.21575e-11, No Iterations 3
ExecutionTime = 12.07 s  ClockTime = 14 s

Time = 305

DILUPBiCGStab:  Solving for omega, Initial residual = 9.70253e-08, Final residual = 2.17159e-11, No Iterations 3
ExecutionTime = 12.1 s  ClockTime = 14 s

Time = 306

DILUPBiCGStab:  Solving for omega, Initial residual = 9.50462e-08, Final residual = 2.12827e-11, No Iterations 3
ExecutionTime = 12.14 s  ClockTime = 14 s

Time = 307

DILUPBiCGStab:  Solving for omega, Initial residual = 9.31066e-08, Final residual = 9.98622e-11, No Iterations 2
ExecutionTime = 12.17 s  ClockTime = 14 s

Time = 308

DILUPBiCGStab:  Solving for omega, Initial residual = 9.12089e-08, Final residual = 3.08779e-11, No Iterations 3
ExecutionTime = 12.21 s  ClockTime = 14 s

Time = 309

DILUPBiCGStab:  Solving for omega, Initial residual = 8.93462e-08, Final residual = 2.33908e-11, No Iterations 3
ExecutionTime = 12.25 s  ClockTime = 14 s

Time = 310

DILUPBiCGStab:  Solving for omega, Initial residual = 8.75208e-08, Final residual = 9.78278e-11, No Iterations 2
ExecutionTime = 12.28 s  ClockTime = 14 s

Time = 311

DILUPBiCGStab:  Solving for omega, Initial residual = 8.57348e-08, Final residual = 2.91109e-11, No Iterations 3
ExecutionTime = 12.31 s  ClockTime = 14 s

Time = 312

DILUPBiCGStab:  Solving for omega, Initial residual = 8.39818e-08, Final residual = 2.20591e-11, No Iterations 3
ExecutionTime = 12.34 s  ClockTime = 14 s

Time = 313

DILUPBiCGStab:  Solving for omega, Initial residual = 8.22639e-08, Final residual = 9.21763e-11, No Iterations 2
ExecutionTime = 12.37 s  ClockTime = 14 s

Time = 314

DILUPBiCGStab:  Solving for omega, Initial residual = 8.05833e-08, Final residual = 2.73958e-11, No Iterations 3
ExecutionTime = 12.4 s  ClockTime = 14 s

Time = 315

DILUPBiCGStab:  Solving for omega, Initial residual = 7.89338e-08, Final residual = 2.07607e-11, No Iterations 3
ExecutionTime = 12.43 s  ClockTime = 14 s

Time = 316

DILUPBiCGStab:  Solving for omega, Initial residual = 7.73174e-08, Final residual = 8.67437e-11, No Iterations 2
ExecutionTime = 12.47 s  ClockTime = 14 s

Time = 317

DILUPBiCGStab:  Solving for omega, Initial residual = 7.57362e-08, Final residual = 2.57753e-11, No Iterations 3
ExecutionTime = 12.5 s  ClockTime = 15 s

Time = 318

DILUPBiCGStab:  Solving for omega, Initial residual = 7.41843e-08, Final residual = 9.71522e-11, No Iterations 2
ExecutionTime = 12.53 s  ClockTime = 15 s

Time = 319

DILUPBiCGStab:  Solving for omega, Initial residual = 7.26663e-08, Final residual = 2.48291e-11, No Iterations 3
ExecutionTime = 12.56 s  ClockTime = 15 s

Time = 320

DILUPBiCGStab:  Solving for omega, Initial residual = 7.11763e-08, Final residual = 9.36556e-11, No Iterations 2
ExecutionTime = 12.59 s  ClockTime = 15 s

Time = 321

DILUPBiCGStab:  Solving for omega, Initial residual = 6.97188e-08, Final residual = 2.38429e-11, No Iterations 3
ExecutionTime = 12.63 s  ClockTime = 15 s

Time = 322

DILUPBiCGStab:  Solving for omega, Initial residual = 6.82883e-08, Final residual = 8.99438e-11, No Iterations 2
ExecutionTime = 12.66 s  ClockTime = 15 s

Time = 323

DILUPBiCGStab:  Solving for omega, Initial residual = 6.68891e-08, Final residual = 2.28911e-11, No Iterations 3
ExecutionTime = 12.68 s  ClockTime = 15 s

Time = 324

DILUPBiCGStab:  Solving for omega, Initial residual = 6.55159e-08, Final residual = 8.63553e-11, No Iterations 2
ExecutionTime = 12.72 s  ClockTime = 15 s

Time = 325

DILUPBiCGStab:  Solving for omega, Initial residual = 6.41727e-08, Final residual = 2.19756e-11, No Iterations 3
ExecutionTime = 12.75 s  ClockTime = 15 s

Time = 326

DILUPBiCGStab:  Solving for omega, Initial residual = 6.28544e-08, Final residual = 8.29039e-11, No Iterations 2
ExecutionTime = 12.78 s  ClockTime = 15 s

Time = 327

DILUPBiCGStab:  Solving for omega, Initial residual = 6.1565e-08, Final residual = 2.10955e-11, No Iterations 3
ExecutionTime = 12.82 s  ClockTime = 15 s

Time = 328

DILUPBiCGStab:  Solving for omega, Initial residual = 6.02996e-08, Final residual = 7.95865e-11, No Iterations 2
ExecutionTime = 12.85 s  ClockTime = 15 s

Time = 329

DILUPBiCGStab:  Solving for omega, Initial residual = 5.90619e-08, Final residual = 2.02495e-11, No Iterations 3
ExecutionTime = 12.88 s  ClockTime = 15 s

Time = 330

DILUPBiCGStab:  Solving for omega, Initial residual = 5.78473e-08, Final residual = 7.63982e-11, No Iterations 2
ExecutionTime = 12.91 s  ClockTime = 15 s

Time = 331

DILUPBiCGStab:  Solving for omega, Initial residual = 5.66594e-08, Final residual = 9.98487e-11, No Iterations 2
ExecutionTime = 12.95 s  ClockTime = 15 s

Time = 332

DILUPBiCGStab:  Solving for omega, Initial residual = 5.54959e-08, Final residual = 9.76381e-11, No Iterations 2
ExecutionTime = 12.98 s  ClockTime = 15 s

Time = 333

DILUPBiCGStab:  Solving for omega, Initial residual = 5.43559e-08, Final residual = 9.5712e-11, No Iterations 2
ExecutionTime = 13.02 s  ClockTime = 15 s

Time = 334

DILUPBiCGStab:  Solving for omega, Initial residual = 5.32391e-08, Final residual = 9.37876e-11, No Iterations 2
ExecutionTime = 13.06 s  ClockTime = 15 s

Time = 335

DILUPBiCGStab:  Solving for omega, Initial residual = 5.21449e-08, Final residual = 9.18957e-11, No Iterations 2
ExecutionTime = 13.09 s  ClockTime = 15 s

Time = 336

DILUPBiCGStab:  Solving for omega, Initial residual = 5.10729e-08, Final residual = 9.00397e-11, No Iterations 2
ExecutionTime = 13.12 s  ClockTime = 15 s

Time = 337

DILUPBiCGStab:  Solving for omega, Initial residual = 5.00227e-08, Final residual = 8.82201e-11, No Iterations 2
ExecutionTime = 13.15 s  ClockTime = 15 s

Time = 338

DILUPBiCGStab:  Solving for omega, Initial residual = 4.89939e-08, Final residual = 8.64361e-11, No Iterations 2
ExecutionTime = 13.17 s  ClockTime = 15 s

Time = 339

DILUPBiCGStab:  Solving for omega, Initial residual = 4.79859e-08, Final residual = 8.46871e-11, No Iterations 2
ExecutionTime = 13.2 s  ClockTime = 15 s

Time = 340

DILUPBiCGStab:  Solving for omega, Initial residual = 4.69985e-08, Final residual = 8.29725e-11, No Iterations 2
ExecutionTime = 13.25 s  ClockTime = 15 s

Time = 341

DILUPBiCGStab:  Solving for omega, Initial residual = 4.60312e-08, Final residual = 8.12914e-11, No Iterations 2
ExecutionTime = 13.28 s  ClockTime = 15 s

Time = 342

DILUPBiCGStab:  Solving for omega, Initial residual = 4.50836e-08, Final residual = 7.96434e-11, No Iterations 2
ExecutionTime = 13.32 s  ClockTime = 15 s

Time = 343

DILUPBiCGStab:  Solving for omega, Initial residual = 4.41553e-08, Final residual = 7.80278e-11, No Iterations 2
ExecutionTime = 13.35 s  ClockTime = 15 s

Time = 344

DILUPBiCGStab:  Solving for omega, Initial residual = 4.32459e-08, Final residual = 7.6444e-11, No Iterations 2
ExecutionTime = 13.39 s  ClockTime = 16 s

Time = 345

DILUPBiCGStab:  Solving for omega, Initial residual = 4.23551e-08, Final residual = 7.48915e-11, No Iterations 2
ExecutionTime = 13.43 s  ClockTime = 16 s

Time = 346

DILUPBiCGStab:  Solving for omega, Initial residual = 4.14824e-08, Final residual = 7.33697e-11, No Iterations 2
ExecutionTime = 13.46 s  ClockTime = 16 s

Time = 347

DILUPBiCGStab:  Solving for omega, Initial residual = 4.06276e-08, Final residual = 7.18778e-11, No Iterations 2
ExecutionTime = 13.49 s  ClockTime = 16 s

Time = 348

DILUPBiCGStab:  Solving for omega, Initial residual = 3.97902e-08, Final residual = 7.04155e-11, No Iterations 2
ExecutionTime = 13.53 s  ClockTime = 16 s

Time = 349

DILUPBiCGStab:  Solving for omega, Initial residual = 3.897e-08, Final residual = 6.89821e-11, No Iterations 2
ExecutionTime = 13.56 s  ClockTime = 16 s

Time = 350

DILUPBiCGStab:  Solving for omega, Initial residual = 3.81665e-08, Final residual = 6.75771e-11, No Iterations 2
ExecutionTime = 13.6 s  ClockTime = 16 s

Time = 351

DILUPBiCGStab:  Solving for omega, Initial residual = 3.73794e-08, Final residual = 6.62001e-11, No Iterations 2
ExecutionTime = 13.63 s  ClockTime = 16 s

Time = 352

DILUPBiCGStab:  Solving for omega, Initial residual = 3.66085e-08, Final residual = 6.48504e-11, No Iterations 2
ExecutionTime = 13.66 s  ClockTime = 16 s

Time = 353

DILUPBiCGStab:  Solving for omega, Initial residual = 3.58533e-08, Final residual = 6.35275e-11, No Iterations 2
ExecutionTime = 13.71 s  ClockTime = 16 s

Time = 354

DILUPBiCGStab:  Solving for omega, Initial residual = 3.51136e-08, Final residual = 6.22311e-11, No Iterations 2
ExecutionTime = 13.75 s  ClockTime = 16 s

Time = 355

DILUPBiCGStab:  Solving for omega, Initial residual = 3.4389e-08, Final residual = 6.09606e-11, No Iterations 2
ExecutionTime = 13.78 s  ClockTime = 16 s

Time = 356

DILUPBiCGStab:  Solving for omega, Initial residual = 3.36793e-08, Final residual = 5.97155e-11, No Iterations 2
ExecutionTime = 13.82 s  ClockTime = 16 s

Time = 357

DILUPBiCGStab:  Solving for omega, Initial residual = 3.29841e-08, Final residual = 5.84953e-11, No Iterations 2
ExecutionTime = 13.86 s  ClockTime = 16 s

Time = 358

DILUPBiCGStab:  Solving for omega, Initial residual = 3.23032e-08, Final residual = 5.72995e-11, No Iterations 2
ExecutionTime = 13.89 s  ClockTime = 16 s

Time = 359

DILUPBiCGStab:  Solving for omega, Initial residual = 3.16362e-08, Final residual = 5.61277e-11, No Iterations 2
ExecutionTime = 13.92 s  ClockTime = 16 s

Time = 360

DILUPBiCGStab:  Solving for omega, Initial residual = 3.0983e-08, Final residual = 5.49794e-11, No Iterations 2
ExecutionTime = 13.95 s  ClockTime = 16 s

Time = 361

DILUPBiCGStab:  Solving for omega, Initial residual = 3.03431e-08, Final residual = 5.38541e-11, No Iterations 2
ExecutionTime = 13.99 s  ClockTime = 16 s

Time = 362

DILUPBiCGStab:  Solving for omega, Initial residual = 2.97164e-08, Final residual = 5.27514e-11, No Iterations 2
ExecutionTime = 14.03 s  ClockTime = 16 s

Time = 363

DILUPBiCGStab:  Solving for omega, Initial residual = 2.91025e-08, Final residual = 5.1671e-11, No Iterations 2
ExecutionTime = 14.06 s  ClockTime = 16 s

Time = 364

DILUPBiCGStab:  Solving for omega, Initial residual = 2.85012e-08, Final residual = 5.06123e-11, No Iterations 2
ExecutionTime = 14.09 s  ClockTime = 16 s

Time = 365

DILUPBiCGStab:  Solving for omega, Initial residual = 2.79123e-08, Final residual = 4.95749e-11, No Iterations 2
ExecutionTime = 14.13 s  ClockTime = 16 s

Time = 366

DILUPBiCGStab:  Solving for omega, Initial residual = 2.73355e-08, Final residual = 4.85584e-11, No Iterations 2
ExecutionTime = 14.16 s  ClockTime = 16 s

Time = 367

DILUPBiCGStab:  Solving for omega, Initial residual = 2.67706e-08, Final residual = 4.75625e-11, No Iterations 2
ExecutionTime = 14.2 s  ClockTime = 16 s

Time = 368

DILUPBiCGStab:  Solving for omega, Initial residual = 2.62172e-08, Final residual = 4.65867e-11, No Iterations 2
ExecutionTime = 14.24 s  ClockTime = 16 s

Time = 369

DILUPBiCGStab:  Solving for omega, Initial residual = 2.56753e-08, Final residual = 4.56306e-11, No Iterations 2
ExecutionTime = 14.27 s  ClockTime = 17 s

Time = 370

DILUPBiCGStab:  Solving for omega, Initial residual = 2.51445e-08, Final residual = 4.46939e-11, No Iterations 2
ExecutionTime = 14.3 s  ClockTime = 17 s

Time = 371

DILUPBiCGStab:  Solving for omega, Initial residual = 2.46246e-08, Final residual = 4.37761e-11, No Iterations 2
ExecutionTime = 14.34 s  ClockTime = 17 s

Time = 372

DILUPBiCGStab:  Solving for omega, Initial residual = 2.41154e-08, Final residual = 4.2877e-11, No Iterations 2
ExecutionTime = 14.38 s  ClockTime = 17 s

Time = 373

DILUPBiCGStab:  Solving for omega, Initial residual = 2.36167e-08, Final residual = 9.84254e-11, No Iterations 2
ExecutionTime = 14.42 s  ClockTime = 17 s

Time = 374

DILUPBiCGStab:  Solving for omega, Initial residual = 2.3129e-08, Final residual = 9.57059e-11, No Iterations 2
ExecutionTime = 14.45 s  ClockTime = 17 s

Time = 375

DILUPBiCGStab:  Solving for omega, Initial residual = 2.26513e-08, Final residual = 9.41214e-11, No Iterations 2
ExecutionTime = 14.48 s  ClockTime = 17 s

Time = 376

DILUPBiCGStab:  Solving for omega, Initial residual = 2.21834e-08, Final residual = 9.18553e-11, No Iterations 2
ExecutionTime = 14.51 s  ClockTime = 17 s

Time = 377

DILUPBiCGStab:  Solving for omega, Initial residual = 2.17251e-08, Final residual = 9.0178e-11, No Iterations 2
ExecutionTime = 14.55 s  ClockTime = 17 s

Time = 378

DILUPBiCGStab:  Solving for omega, Initial residual = 2.12762e-08, Final residual = 8.81635e-11, No Iterations 2
ExecutionTime = 14.58 s  ClockTime = 17 s

Time = 379

DILUPBiCGStab:  Solving for omega, Initial residual = 2.08365e-08, Final residual = 8.64518e-11, No Iterations 2
ExecutionTime = 14.62 s  ClockTime = 17 s

Time = 380

DILUPBiCGStab:  Solving for omega, Initial residual = 2.04058e-08, Final residual = 8.46119e-11, No Iterations 2
ExecutionTime = 14.65 s  ClockTime = 17 s

Time = 381

DILUPBiCGStab:  Solving for omega, Initial residual = 1.9984e-08, Final residual = 8.29061e-11, No Iterations 2
ExecutionTime = 14.69 s  ClockTime = 17 s

Time = 382

DILUPBiCGStab:  Solving for omega, Initial residual = 1.95709e-08, Final residual = 8.11976e-11, No Iterations 2
ExecutionTime = 14.72 s  ClockTime = 17 s

Time = 383

DILUPBiCGStab:  Solving for omega, Initial residual = 1.91663e-08, Final residual = 7.95212e-11, No Iterations 2
ExecutionTime = 14.75 s  ClockTime = 17 s

Time = 384

DILUPBiCGStab:  Solving for omega, Initial residual = 1.877e-08, Final residual = 7.79171e-11, No Iterations 2
ExecutionTime = 14.78 s  ClockTime = 17 s

Time = 385

DILUPBiCGStab:  Solving for omega, Initial residual = 1.83818e-08, Final residual = 7.63126e-11, No Iterations 2
ExecutionTime = 14.81 s  ClockTime = 17 s

Time = 386

DILUPBiCGStab:  Solving for omega, Initial residual = 1.80017e-08, Final residual = 7.47661e-11, No Iterations 2
ExecutionTime = 14.85 s  ClockTime = 17 s

Time = 387

DILUPBiCGStab:  Solving for omega, Initial residual = 1.76294e-08, Final residual = 7.32295e-11, No Iterations 2
ExecutionTime = 14.89 s  ClockTime = 17 s

Time = 388

DILUPBiCGStab:  Solving for omega, Initial residual = 1.72647e-08, Final residual = 7.174e-11, No Iterations 2
ExecutionTime = 14.92 s  ClockTime = 17 s

Time = 389

DILUPBiCGStab:  Solving for omega, Initial residual = 1.69076e-08, Final residual = 7.02671e-11, No Iterations 2
ExecutionTime = 14.95 s  ClockTime = 17 s

Time = 390

DILUPBiCGStab:  Solving for omega, Initial residual = 1.65578e-08, Final residual = 6.8834e-11, No Iterations 2
ExecutionTime = 14.98 s  ClockTime = 17 s

Time = 391

DILUPBiCGStab:  Solving for omega, Initial residual = 1.62152e-08, Final residual = 6.74214e-11, No Iterations 2
ExecutionTime = 15.02 s  ClockTime = 17 s

Time = 392

DILUPBiCGStab:  Solving for omega, Initial residual = 1.58797e-08, Final residual = 6.60437e-11, No Iterations 2
ExecutionTime = 15.05 s  ClockTime = 17 s

Time = 393

DILUPBiCGStab:  Solving for omega, Initial residual = 1.55512e-08, Final residual = 6.46885e-11, No Iterations 2
ExecutionTime = 15.08 s  ClockTime = 17 s

Time = 394

DILUPBiCGStab:  Solving for omega, Initial residual = 1.52294e-08, Final residual = 6.33646e-11, No Iterations 2
ExecutionTime = 15.12 s  ClockTime = 17 s

Time = 395

DILUPBiCGStab:  Solving for omega, Initial residual = 1.49142e-08, Final residual = 6.20642e-11, No Iterations 2
ExecutionTime = 15.15 s  ClockTime = 17 s

Time = 396

DILUPBiCGStab:  Solving for omega, Initial residual = 1.46055e-08, Final residual = 6.07925e-11, No Iterations 2
ExecutionTime = 15.19 s  ClockTime = 18 s

Time = 397

DILUPBiCGStab:  Solving for omega, Initial residual = 1.43032e-08, Final residual = 5.95445e-11, No Iterations 2
ExecutionTime = 15.22 s  ClockTime = 18 s

Time = 398

DILUPBiCGStab:  Solving for omega, Initial residual = 1.40072e-08, Final residual = 5.83232e-11, No Iterations 2
ExecutionTime = 15.25 s  ClockTime = 18 s

Time = 399

DILUPBiCGStab:  Solving for omega, Initial residual = 1.37172e-08, Final residual = 5.71254e-11, No Iterations 2
ExecutionTime = 15.3 s  ClockTime = 18 s

Time = 400

DILUPBiCGStab:  Solving for omega, Initial residual = 1.34333e-08, Final residual = 5.59528e-11, No Iterations 2
ExecutionTime = 15.34 s  ClockTime = 18 s

Time = 401

DILUPBiCGStab:  Solving for omega, Initial residual = 1.31552e-08, Final residual = 5.48031e-11, No Iterations 2
ExecutionTime = 15.38 s  ClockTime = 18 s

Time = 402

DILUPBiCGStab:  Solving for omega, Initial residual = 1.28828e-08, Final residual = 5.36774e-11, No Iterations 2
ExecutionTime = 15.41 s  ClockTime = 18 s

Time = 403

DILUPBiCGStab:  Solving for omega, Initial residual = 1.26161e-08, Final residual = 5.2574e-11, No Iterations 2
ExecutionTime = 15.44 s  ClockTime = 18 s

Time = 404

DILUPBiCGStab:  Solving for omega, Initial residual = 1.23549e-08, Final residual = 5.14934e-11, No Iterations 2
ExecutionTime = 15.48 s  ClockTime = 18 s

Time = 405

DILUPBiCGStab:  Solving for omega, Initial residual = 1.20991e-08, Final residual = 5.04345e-11, No Iterations 2
ExecutionTime = 15.51 s  ClockTime = 18 s

Time = 406

DILUPBiCGStab:  Solving for omega, Initial residual = 1.18485e-08, Final residual = 4.93973e-11, No Iterations 2
ExecutionTime = 15.54 s  ClockTime = 18 s

Time = 407

DILUPBiCGStab:  Solving for omega, Initial residual = 1.16032e-08, Final residual = 4.83809e-11, No Iterations 2
ExecutionTime = 15.58 s  ClockTime = 18 s

Time = 408

DILUPBiCGStab:  Solving for omega, Initial residual = 1.13629e-08, Final residual = 4.73855e-11, No Iterations 2
ExecutionTime = 15.61 s  ClockTime = 18 s

Time = 409

DILUPBiCGStab:  Solving for omega, Initial residual = 1.11276e-08, Final residual = 4.64101e-11, No Iterations 2
ExecutionTime = 15.65 s  ClockTime = 18 s

Time = 410

DILUPBiCGStab:  Solving for omega, Initial residual = 1.08971e-08, Final residual = 4.54547e-11, No Iterations 2
ExecutionTime = 15.68 s  ClockTime = 18 s

Time = 411

DILUPBiCGStab:  Solving for omega, Initial residual = 1.06714e-08, Final residual = 4.45187e-11, No Iterations 2
ExecutionTime = 15.71 s  ClockTime = 18 s

Time = 412

DILUPBiCGStab:  Solving for omega, Initial residual = 1.04504e-08, Final residual = 4.36019e-11, No Iterations 2
ExecutionTime = 15.74 s  ClockTime = 18 s

Time = 413

DILUPBiCGStab:  Solving for omega, Initial residual = 1.0234e-08, Final residual = 4.27037e-11, No Iterations 2
ExecutionTime = 15.77 s  ClockTime = 18 s

Time = 414

DILUPBiCGStab:  Solving for omega, Initial residual = 1.0022e-08, Final residual = 4.18239e-11, No Iterations 2
ExecutionTime = 15.8 s  ClockTime = 18 s

Time = 415

DILUPBiCGStab:  Solving for omega, Initial residual = 9.81439e-09, Final residual = 4.0962e-11, No Iterations 2
ExecutionTime = 15.83 s  ClockTime = 18 s

Time = 416

DILUPBiCGStab:  Solving for omega, Initial residual = 9.61109e-09, Final residual = 4.01178e-11, No Iterations 2
ExecutionTime = 15.86 s  ClockTime = 18 s

Time = 417

DILUPBiCGStab:  Solving for omega, Initial residual = 9.412e-09, Final residual = 3.92908e-11, No Iterations 2
ExecutionTime = 15.89 s  ClockTime = 18 s

Time = 418

DILUPBiCGStab:  Solving for omega, Initial residual = 9.21702e-09, Final residual = 3.84807e-11, No Iterations 2
ExecutionTime = 15.92 s  ClockTime = 18 s

Time = 419

DILUPBiCGStab:  Solving for omega, Initial residual = 9.02608e-09, Final residual = 3.76872e-11, No Iterations 2
ExecutionTime = 15.97 s  ClockTime = 18 s

Time = 420

DILUPBiCGStab:  Solving for omega, Initial residual = 8.83909e-09, Final residual = 3.69099e-11, No Iterations 2
ExecutionTime = 16 s  ClockTime = 18 s

Time = 421

DILUPBiCGStab:  Solving for omega, Initial residual = 8.65597e-09, Final residual = 3.61486e-11, No Iterations 2
ExecutionTime = 16.04 s  ClockTime = 19 s

Time = 422

DILUPBiCGStab:  Solving for omega, Initial residual = 8.47664e-09, Final residual = 3.54028e-11, No Iterations 2
ExecutionTime = 16.07 s  ClockTime = 19 s

Time = 423

DILUPBiCGStab:  Solving for omega, Initial residual = 8.30102e-09, Final residual = 3.46724e-11, No Iterations 2
ExecutionTime = 16.11 s  ClockTime = 19 s

Time = 424

DILUPBiCGStab:  Solving for omega, Initial residual = 8.12903e-09, Final residual = 3.39569e-11, No Iterations 2
ExecutionTime = 16.13 s  ClockTime = 19 s

Time = 425

DILUPBiCGStab:  Solving for omega, Initial residual = 7.96061e-09, Final residual = 3.32561e-11, No Iterations 2
ExecutionTime = 16.16 s  ClockTime = 19 s

Time = 426

DILUPBiCGStab:  Solving for omega, Initial residual = 7.79567e-09, Final residual = 3.25696e-11, No Iterations 2
ExecutionTime = 16.19 s  ClockTime = 19 s

Time = 427

DILUPBiCGStab:  Solving for omega, Initial residual = 7.63414e-09, Final residual = 3.18973e-11, No Iterations 2
ExecutionTime = 16.22 s  ClockTime = 19 s

Time = 428

DILUPBiCGStab:  Solving for omega, Initial residual = 7.47596e-09, Final residual = 3.12387e-11, No Iterations 2
ExecutionTime = 16.25 s  ClockTime = 19 s

Time = 429

DILUPBiCGStab:  Solving for omega, Initial residual = 7.32105e-09, Final residual = 3.05937e-11, No Iterations 2
ExecutionTime = 16.28 s  ClockTime = 19 s

Time = 430

DILUPBiCGStab:  Solving for omega, Initial residual = 7.16936e-09, Final residual = 2.99619e-11, No Iterations 2
ExecutionTime = 16.37 s  ClockTime = 19 s

Time = 431

DILUPBiCGStab:  Solving for omega, Initial residual = 7.0208e-09, Final residual = 2.93432e-11, No Iterations 2
ExecutionTime = 16.4 s  ClockTime = 19 s

Time = 432

DILUPBiCGStab:  Solving for omega, Initial residual = 6.87531e-09, Final residual = 2.87371e-11, No Iterations 2
ExecutionTime = 16.43 s  ClockTime = 19 s

Time = 433

DILUPBiCGStab:  Solving for omega, Initial residual = 6.73284e-09, Final residual = 2.81435e-11, No Iterations 2
ExecutionTime = 16.46 s  ClockTime = 19 s

Time = 434

DILUPBiCGStab:  Solving for omega, Initial residual = 6.59332e-09, Final residual = 2.75621e-11, No Iterations 2
ExecutionTime = 16.49 s  ClockTime = 19 s

Time = 435

DILUPBiCGStab:  Solving for omega, Initial residual = 6.45669e-09, Final residual = 2.69926e-11, No Iterations 2
ExecutionTime = 16.52 s  ClockTime = 19 s

Time = 436

DILUPBiCGStab:  Solving for omega, Initial residual = 6.32289e-09, Final residual = 2.64349e-11, No Iterations 2
ExecutionTime = 16.55 s  ClockTime = 19 s

Time = 437

DILUPBiCGStab:  Solving for omega, Initial residual = 6.19186e-09, Final residual = 2.58886e-11, No Iterations 2
ExecutionTime = 16.59 s  ClockTime = 19 s

Time = 438

DILUPBiCGStab:  Solving for omega, Initial residual = 6.06355e-09, Final residual = 2.53536e-11, No Iterations 2
ExecutionTime = 16.62 s  ClockTime = 19 s

Time = 439

DILUPBiCGStab:  Solving for omega, Initial residual = 5.93789e-09, Final residual = 2.48296e-11, No Iterations 2
ExecutionTime = 16.65 s  ClockTime = 19 s

Time = 440

DILUPBiCGStab:  Solving for omega, Initial residual = 5.81483e-09, Final residual = 2.43164e-11, No Iterations 2
ExecutionTime = 16.67 s  ClockTime = 19 s

Time = 441

DILUPBiCGStab:  Solving for omega, Initial residual = 5.69433e-09, Final residual = 2.38138e-11, No Iterations 2
ExecutionTime = 16.7 s  ClockTime = 19 s

Time = 442

DILUPBiCGStab:  Solving for omega, Initial residual = 5.57632e-09, Final residual = 2.33215e-11, No Iterations 2
ExecutionTime = 16.73 s  ClockTime = 19 s

Time = 443

DILUPBiCGStab:  Solving for omega, Initial residual = 5.46075e-09, Final residual = 2.28394e-11, No Iterations 2
ExecutionTime = 16.76 s  ClockTime = 19 s

Time = 444

DILUPBiCGStab:  Solving for omega, Initial residual = 5.34758e-09, Final residual = 2.23672e-11, No Iterations 2
ExecutionTime = 16.8 s  ClockTime = 19 s

Time = 445

DILUPBiCGStab:  Solving for omega, Initial residual = 5.23675e-09, Final residual = 2.19047e-11, No Iterations 2
ExecutionTime = 16.83 s  ClockTime = 19 s

Time = 446

DILUPBiCGStab:  Solving for omega, Initial residual = 5.12822e-09, Final residual = 2.14518e-11, No Iterations 2
ExecutionTime = 16.86 s  ClockTime = 19 s

Time = 447

DILUPBiCGStab:  Solving for omega, Initial residual = 5.02194e-09, Final residual = 2.10082e-11, No Iterations 2
ExecutionTime = 16.88 s  ClockTime = 19 s

Time = 448

DILUPBiCGStab:  Solving for omega, Initial residual = 4.91786e-09, Final residual = 2.05738e-11, No Iterations 2
ExecutionTime = 16.91 s  ClockTime = 20 s

Time = 449

DILUPBiCGStab:  Solving for omega, Initial residual = 4.81594e-09, Final residual = 2.01483e-11, No Iterations 2
ExecutionTime = 16.94 s  ClockTime = 20 s

Time = 450

DILUPBiCGStab:  Solving for omega, Initial residual = 4.71613e-09, Final residual = 1.97316e-11, No Iterations 2
ExecutionTime = 16.97 s  ClockTime = 20 s

Time = 451

DILUPBiCGStab:  Solving for omega, Initial residual = 4.61838e-09, Final residual = 1.93235e-11, No Iterations 2
ExecutionTime = 17 s  ClockTime = 20 s

Time = 452

DILUPBiCGStab:  Solving for omega, Initial residual = 4.52266e-09, Final residual = 9.8678e-11, No Iterations 1
ExecutionTime = 17.04 s  ClockTime = 20 s

Time = 453

DILUPBiCGStab:  Solving for omega, Initial residual = 4.43089e-09, Final residual = 9.69053e-11, No Iterations 1
ExecutionTime = 17.07 s  ClockTime = 20 s

Time = 454

DILUPBiCGStab:  Solving for omega, Initial residual = 4.34098e-09, Final residual = 9.50883e-11, No Iterations 1
ExecutionTime = 17.1 s  ClockTime = 20 s

Time = 455

DILUPBiCGStab:  Solving for omega, Initial residual = 4.25292e-09, Final residual = 9.33491e-11, No Iterations 1
ExecutionTime = 17.13 s  ClockTime = 20 s

Time = 456

DILUPBiCGStab:  Solving for omega, Initial residual = 4.16665e-09, Final residual = 9.16774e-11, No Iterations 1
ExecutionTime = 17.16 s  ClockTime = 20 s

Time = 457

DILUPBiCGStab:  Solving for omega, Initial residual = 4.08215e-09, Final residual = 9.00403e-11, No Iterations 1
ExecutionTime = 17.19 s  ClockTime = 20 s

Time = 458

DILUPBiCGStab:  Solving for omega, Initial residual = 3.99938e-09, Final residual = 8.84331e-11, No Iterations 1
ExecutionTime = 17.22 s  ClockTime = 20 s

Time = 459

DILUPBiCGStab:  Solving for omega, Initial residual = 3.91829e-09, Final residual = 8.68538e-11, No Iterations 1
ExecutionTime = 17.26 s  ClockTime = 20 s

Time = 460

DILUPBiCGStab:  Solving for omega, Initial residual = 3.83884e-09, Final residual = 8.52943e-11, No Iterations 1
ExecutionTime = 17.29 s  ClockTime = 20 s

Time = 461

DILUPBiCGStab:  Solving for omega, Initial residual = 3.76101e-09, Final residual = 8.37527e-11, No Iterations 1
ExecutionTime = 17.33 s  ClockTime = 20 s

Time = 462

DILUPBiCGStab:  Solving for omega, Initial residual = 3.68478e-09, Final residual = 8.22272e-11, No Iterations 1
ExecutionTime = 17.36 s  ClockTime = 20 s

Time = 463

DILUPBiCGStab:  Solving for omega, Initial residual = 3.61009e-09, Final residual = 8.07178e-11, No Iterations 1
ExecutionTime = 17.4 s  ClockTime = 20 s

Time = 464

DILUPBiCGStab:  Solving for omega, Initial residual = 3.5369e-09, Final residual = 7.92251e-11, No Iterations 1
ExecutionTime = 17.43 s  ClockTime = 20 s

Time = 465
[...]

Time = 5885

DILUPBiCGStab:  Solving for omega, Initial residual = 9.99903e-11, Final residual = 9.99903e-11, No Iterations 0
ExecutionTime = 178.98 s  ClockTime = 206 s

Time = 5886

DILUPBiCGStab:  Solving for omega, Initial residual = 9.99903e-11, Final residual = 9.99903e-11, No Iterations 0
ExecutionTime = 179 s  ClockTime = 206 s

Time = 5887

DILUPBiCGStab:  Solving for omega, Initial residual = 9.99903e-11, Final residual = 9.99903e-11, No Iterations 0
ExecutionTime = 179.03 s  ClockTime = 206 s

Time = 5888

DILUPBiCGStab:  Solving for omega, Initial residual = 9.99903e-11, Final residual = 9.99903e-11, No Iterations 0
ExecutionTime = 179.06 s  ClockTime = 206 s

Time = 5889

DILUPBiCGStab:  Solving for omega, Initial residual = 9.99903e-11, Final residual = 9.99903e-11, No Iterations 0
ExecutionTime = 179.09 s  ClockTime = 207 s

Time = 5890

DILUPBiCGStab:  Solving for omega, Initial residual = 9.99903e-11, Final residual = 9.99903e-11, No Iterations 0
ExecutionTime = 179.12 s  ClockTime = 207 s

Time = 5891

DILUPBiCGStab:  Solving for omega, Initial residual = 9.99903e-11, Final residual = 9.99903e-11, No Iterations 0
ExecutionTime = 179.15 s  ClockTime = 207 s

Time = 5892

DILUPBiCGStab:  Solving for omega, Initial residual = 9.99903e-11, Final residual = 9.99903e-11, No Iterations 0
ExecutionTime = 179.19 s  ClockTime = 207 s

Time = 5893

DILUPBiCGStab:  Solving for omega, Initial residual = 9.99903e-11, Final residual = 9.99903e-11, No Iterations 0
ExecutionTime = 179.22 s  ClockTime = 207 s

Time = 5894

DILUPBiCGStab:  Solving for omega, Initial residual = 9.99903e-11, Final residual = 9.99903e-11, No Iterations 0
ExecutionTime = 179.25 s  ClockTime = 207 s

Time = 5895

DILUPBiCGStab:  Solving for omega, Initial residual = 9.99903e-11, Final residual = 9.99903e-11, No Iterations 0
ExecutionTime = 179.29 s  ClockTime = 207 s

Time = 5896

DILUPBiCGStab:  Solving for omega, Initial residual = 9.99903e-11, Final residual = 9.99903e-11, No Iterations 0
ExecutionTime = 179.32 s  ClockTime = 207 s

Time = 5897

DILUPBiCGStab:  Solving for omega, Initial residual = 9.99903e-11, Final residual = 9.99903e-11, No Iterations 0
ExecutionTime = 179.35 s  ClockTime = 207 s

Time = 5898

DILUPBiCGStab:  Solving for omega, Initial residual = 9.99903e-11, Final residual = 9.99903e-11, No Iterations 0
ExecutionTime = 179.39 s  ClockTime = 207 s

Time = 5899

DILUPBiCGStab:  Solving for omega, Initial residual = 9.99903e-11, Final residual = 9.99903e-11, No Iterations 0
ExecutionTime = 179.41 s  ClockTime = 207 s

Time = 5900

DILUPBiCGStab:  Solving for omega, Initial residual = 9.99903e-11, Final residual = 9.99903e-11, No Iterations 0
ExecutionTime = 179.44 s  ClockTime = 207 s

Time = 5901

DILUPBiCGStab:  Solving for omega, Initial residual = 9.99903e-11, Final residual = 9.99903e-11, No Iterations 0
ExecutionTime = 179.47 s  ClockTime = 207 s

Time = 5902

DILUPBiCGStab:  Solving for omega, Initial residual = 9.99903e-11, Final residual = 9.99903e-11, No Iterations 0
ExecutionTime = 179.49 s  ClockTime = 207 s

Time = 5903

DILUPBiCGStab:  Solving for omega, Initial residual = 9.99903e-11, Final residual = 9.99903e-11, No Iterations 0
ExecutionTime = 179.52 s  ClockTime = 207 s

Time = 5904

DILUPBiCGStab:  Solving for omega, Initial residual = 9.99903e-11, Final residual = 9.99903e-11, No Iterations 0
ExecutionTime = 179.55 s  ClockTime = 207 s

Time = 5905

DILUPBiCGStab:  Solving for omega, Initial residual = 9.99903e-11, Final residual = 9.99903e-11, No Iterations 0
ExecutionTime = 179.58 s  ClockTime = 207 s

Time = 5906

DILUPBiCGStab:  Solving for omega, Initial residual = 9.99903e-11, Final residual = 9.99903e-11, No Iterations 0
ExecutionTime = 179.61 s  ClockTime = 207 s

Time = 5907

DILUPBiCGStab:  Solving for omega, Initial residual = 9.99903e-11, Final residual = 9.99903e-11, No Iterations 0
ExecutionTime = 179.64 s  ClockTime = 207 s

Time = 5908

DILUPBiCGStab:  Solving for omega, Initial residual = 9.99903e-11, Final residual = 9.99903e-11, No Iterations 0
ExecutionTime = 179.67 s  ClockTime = 207 s

Time = 5909

DILUPBiCGStab:  Solving for omega, Initial residual = 9.99903e-11, Final residual = 9.99903e-11, No Iterations 0
ExecutionTime = 179.69 s  ClockTime = 207 s

Time = 5910

DILUPBiCGStab:  Solving for omega, Initial residual = 9.99903e-11, Final residual = 9.99903e-11, No Iterations 0
ExecutionTime = 179.72 s  ClockTime = 207 s

Time = 5911

DILUPBiCGStab:  Solving for omega, Initial residual = 9.99903e-11, Final residual = 9.99903e-11, No Iterations 0
ExecutionTime = 179.75 s  ClockTime = 207 s

Time = 5912

DILUPBiCGStab:  Solving for omega, Initial residual = 9.99903e-11, Final residual = 9.99903e-11, No Iterations 0
ExecutionTime = 179.78 s  ClockTime = 207 s

Time = 5913

DILUPBiCGStab:  Solving for omega, Initial residual = 9.99903e-11, Final residual = 9.99903e-11, No Iterations 0
ExecutionTime = 179.82 s  ClockTime = 207 s

Time = 5914

DILUPBiCGStab:  Solving for omega, Initial residual = 9.99903e-11, Final residual = 9.99903e-11, No Iterations 0
ExecutionTime = 179.84 s  ClockTime = 207 s

Time = 5915

DILUPBiCGStab:  Solving for omega, Initial residual = 9.99903e-11, Final residual = 9.99903e-11, No Iterations 0
ExecutionTime = 179.87 s  ClockTime = 207 s

Time = 5916

DILUPBiCGStab:  Solving for omega, Initial residual = 9.99903e-11, Final residual = 9.99903e-11, No Iterations 0
ExecutionTime = 179.9 s  ClockTime = 207 s

Time = 5917

DILUPBiCGStab:  Solving for omega, Initial residual = 9.99903e-11, Final residual = 9.99903e-11, No Iterations 0
ExecutionTime = 179.93 s  ClockTime = 207 s

Time = 5918

DILUPBiCGStab:  Solving for omega, Initial residual = 9.99903e-11, Final residual = 9.99903e-11, No Iterations 0
ExecutionTime = 179.95 s  ClockTime = 207 s

Time = 5919

DILUPBiCGStab:  Solving for omega, Initial residual = 9.99903e-11, Final residual = 9.99903e-11, No Iterations 0
ExecutionTime = 179.98 s  ClockTime = 207 s

Time = 5920

DILUPBiCGStab:  Solving for omega, Initial residual = 9.99903e-11, Final residual = 9.99903e-11, No Iterations 0
ExecutionTime = 180.01 s  ClockTime = 207 s

Time = 5921

DILUPBiCGStab:  Solving for omega, Initial residual = 9.99903e-11, Final residual = 9.99903e-11, No Iterations 0
ExecutionTime = 180.03 s  ClockTime = 208 s

Time = 5922

DILUPBiCGStab:  Solving for omega, Initial residual = 9.99903e-11, Final residual = 9.99903e-11, No Iterations 0
ExecutionTime = 180.06 s  ClockTime = 208 s

Time = 5923

DILUPBiCGStab:  Solving for omega, Initial residual = 9.99903e-11, Final residual = 9.99903e-11, No Iterations 0
ExecutionTime = 180.09 s  ClockTime = 208 s

Time = 5924

DILUPBiCGStab:  Solving for omega, Initial residual = 9.99903e-11, Final residual = 9.99903e-11, No Iterations 0
ExecutionTime = 180.12 s  ClockTime = 208 s

Time = 5925

DILUPBiCGStab:  Solving for omega, Initial residual = 9.99903e-11, Final residual = 9.99903e-11, No Iterations 0
ExecutionTime = 180.15 s  ClockTime = 208 s

Time = 5926

DILUPBiCGStab:  Solving for omega, Initial residual = 9.99903e-11, Final residual = 9.99903e-11, No Iterations 0
ExecutionTime = 180.18 s  ClockTime = 208 s

Time = 5927

DILUPBiCGStab:  Solving for omega, Initial residual = 9.99903e-11, Final residual = 9.99903e-11, No Iterations 0
ExecutionTime = 180.2 s  ClockTime = 208 s

Time = 5928

DILUPBiCGStab:  Solving for omega, Initial residual = 9.99903e-11, Final residual = 9.99903e-11, No Iterations 0
ExecutionTime = 180.23 s  ClockTime = 208 s

Time = 5929

DILUPBiCGStab:  Solving for omega, Initial residual = 9.99903e-11, Final residual = 9.99903e-11, No Iterations 0
ExecutionTime = 180.25 s  ClockTime = 208 s

Time = 5930

DILUPBiCGStab:  Solving for omega, Initial residual = 9.99903e-11, Final residual = 9.99903e-11, No Iterations 0
ExecutionTime = 180.28 s  ClockTime = 208 s

Time = 5931

DILUPBiCGStab:  Solving for omega, Initial residual = 9.99903e-11, Final residual = 9.99903e-11, No Iterations 0
ExecutionTime = 180.3 s  ClockTime = 208 s

Time = 5932

DILUPBiCGStab:  Solving for omega, Initial residual = 9.99903e-11, Final residual = 9.99903e-11, No Iterations 0
ExecutionTime = 180.32 s  ClockTime = 208 s

Time = 5933

DILUPBiCGStab:  Solving for omega, Initial residual = 9.99903e-11, Final residual = 9.99903e-11, No Iterations 0
ExecutionTime = 180.35 s  ClockTime = 208 s

Time = 5934

DILUPBiCGStab:  Solving for omega, Initial residual = 9.99903e-11, Final residual = 9.99903e-11, No Iterations 0
ExecutionTime = 180.37 s  ClockTime = 208 s

Time = 5935

DILUPBiCGStab:  Solving for omega, Initial residual = 9.99903e-11, Final residual = 9.99903e-11, No Iterations 0
ExecutionTime = 180.39 s  ClockTime = 208 s

Time = 5936

DILUPBiCGStab:  Solving for omega, Initial residual = 9.99903e-11, Final residual = 9.99903e-11, No Iterations 0
ExecutionTime = 180.41 s  ClockTime = 208 s

Time = 5937

DILUPBiCGStab:  Solving for omega, Initial residual = 9.99903e-11, Final residual = 9.99903e-11, No Iterations 0
ExecutionTime = 180.43 s  ClockTime = 208 s

Time = 5938

DILUPBiCGStab:  Solving for omega, Initial residual = 9.99903e-11, Final residual = 9.99903e-11, No Iterations 0
ExecutionTime = 180.45 s  ClockTime = 208 s

Time = 5939

DILUPBiCGStab:  Solving for omega, Initial residual = 9.99903e-11, Final residual = 9.99903e-11, No Iterations 0
ExecutionTime = 180.48 s  ClockTime = 208 s

Time = 5940

DILUPBiCGStab:  Solving for omega, Initial residual = 9.99903e-11, Final residual = 9.99903e-11, No Iterations 0
ExecutionTime = 180.51 s  ClockTime = 208 s

Time = 5941

DILUPBiCGStab:  Solving for omega, Initial residual = 9.99903e-11, Final residual = 9.99903e-11, No Iterations 0
ExecutionTime = 180.53 s  ClockTime = 208 s

Time = 5942

DILUPBiCGStab:  Solving for omega, Initial residual = 9.99903e-11, Final residual = 9.99903e-11, No Iterations 0
ExecutionTime = 180.55 s  ClockTime = 208 s

Time = 5943

DILUPBiCGStab:  Solving for omega, Initial residual = 9.99903e-11, Final residual = 9.99903e-11, No Iterations 0
ExecutionTime = 180.58 s  ClockTime = 208 s

Time = 5944

DILUPBiCGStab:  Solving for omega, Initial residual = 9.99903e-11, Final residual = 9.99903e-11, No Iterations 0
ExecutionTime = 180.6 s  ClockTime = 208 s

Time = 5945

DILUPBiCGStab:  Solving for omega, Initial residual = 9.99903e-11, Final residual = 9.99903e-11, No Iterations 0
ExecutionTime = 180.63 s  ClockTime = 208 s

Time = 5946

DILUPBiCGStab:  Solving for omega, Initial residual = 9.99903e-11, Final residual = 9.99903e-11, No Iterations 0
ExecutionTime = 180.66 s  ClockTime = 208 s

Time = 5947

DILUPBiCGStab:  Solving for omega, Initial residual = 9.99903e-11, Final residual = 9.99903e-11, No Iterations 0
ExecutionTime = 180.68 s  ClockTime = 208 s

Time = 5948

DILUPBiCGStab:  Solving for omega, Initial residual = 9.99903e-11, Final residual = 9.99903e-11, No Iterations 0
ExecutionTime = 180.71 s  ClockTime = 208 s

Time = 5949

DILUPBiCGStab:  Solving for omega, Initial residual = 9.99903e-11, Final residual = 9.99903e-11, No Iterations 0
ExecutionTime = 180.73 s  ClockTime = 208 s

Time = 5950

DILUPBiCGStab:  Solving for omega, Initial residual = 9.99903e-11, Final residual = 9.99903e-11, No Iterations 0
ExecutionTime = 180.76 s  ClockTime = 208 s

Time = 5951

DILUPBiCGStab:  Solving for omega, Initial residual = 9.99903e-11, Final residual = 9.99903e-11, No Iterations 0
ExecutionTime = 180.79 s  ClockTime = 209 s

Time = 5952

DILUPBiCGStab:  Solving for omega, Initial residual = 9.99903e-11, Final residual = 9.99903e-11, No Iterations 0
ExecutionTime = 180.83 s  ClockTime = 209 s

Time = 5953

DILUPBiCGStab:  Solving for omega, Initial residual = 9.99903e-11, Final residual = 9.99903e-11, No Iterations 0
ExecutionTime = 180.86 s  ClockTime = 209 s

Time = 5954

DILUPBiCGStab:  Solving for omega, Initial residual = 9.99903e-11, Final residual = 9.99903e-11, No Iterations 0
ExecutionTime = 180.88 s  ClockTime = 209 s

Time = 5955

DILUPBiCGStab:  Solving for omega, Initial residual = 9.99903e-11, Final residual = 9.99903e-11, No Iterations 0
ExecutionTime = 180.9 s  ClockTime = 209 s

Time = 5956

DILUPBiCGStab:  Solving for omega, Initial residual = 9.99903e-11, Final residual = 9.99903e-11, No Iterations 0
ExecutionTime = 180.93 s  ClockTime = 209 s

Time = 5957

DILUPBiCGStab:  Solving for omega, Initial residual = 9.99903e-11, Final residual = 9.99903e-11, No Iterations 0
ExecutionTime = 180.95 s  ClockTime = 209 s

Time = 5958

DILUPBiCGStab:  Solving for omega, Initial residual = 9.99903e-11, Final residual = 9.99903e-11, No Iterations 0
ExecutionTime = 180.97 s  ClockTime = 209 s

Time = 5959

DILUPBiCGStab:  Solving for omega, Initial residual = 9.99903e-11, Final residual = 9.99903e-11, No Iterations 0
ExecutionTime = 181 s  ClockTime = 209 s

Time = 5960

DILUPBiCGStab:  Solving for omega, Initial residual = 9.99903e-11, Final residual = 9.99903e-11, No Iterations 0
ExecutionTime = 181.04 s  ClockTime = 209 s

Time = 5961

DILUPBiCGStab:  Solving for omega, Initial residual = 9.99903e-11, Final residual = 9.99903e-11, No Iterations 0
ExecutionTime = 181.07 s  ClockTime = 209 s

Time = 5962

DILUPBiCGStab:  Solving for omega, Initial residual = 9.99903e-11, Final residual = 9.99903e-11, No Iterations 0
ExecutionTime = 181.1 s  ClockTime = 209 s

Time = 5963

DILUPBiCGStab:  Solving for omega, Initial residual = 9.99903e-11, Final residual = 9.99903e-11, No Iterations 0
ExecutionTime = 181.14 s  ClockTime = 209 s

Time = 5964

DILUPBiCGStab:  Solving for omega, Initial residual = 9.99903e-11, Final residual = 9.99903e-11, No Iterations 0
ExecutionTime = 181.18 s  ClockTime = 209 s

Time = 5965

DILUPBiCGStab:  Solving for omega, Initial residual = 9.99903e-11, Final residual = 9.99903e-11, No Iterations 0
ExecutionTime = 181.21 s  ClockTime = 209 s

Time = 5966

DILUPBiCGStab:  Solving for omega, Initial residual = 9.99903e-11, Final residual = 9.99903e-11, No Iterations 0
ExecutionTime = 181.24 s  ClockTime = 209 s

Time = 5967

DILUPBiCGStab:  Solving for omega, Initial residual = 9.99903e-11, Final residual = 9.99903e-11, No Iterations 0
ExecutionTime = 181.27 s  ClockTime = 209 s

Time = 5968

DILUPBiCGStab:  Solving for omega, Initial residual = 9.99903e-11, Final residual = 9.99903e-11, No Iterations 0
ExecutionTime = 181.29 s  ClockTime = 209 s

Time = 5969

DILUPBiCGStab:  Solving for omega, Initial residual = 9.99903e-11, Final residual = 9.99903e-11, No Iterations 0
ExecutionTime = 181.32 s  ClockTime = 209 s

Time = 5970

DILUPBiCGStab:  Solving for omega, Initial residual = 9.99903e-11, Final residual = 9.99903e-11, No Iterations 0
ExecutionTime = 181.35 s  ClockTime = 209 s

Time = 5971

DILUPBiCGStab:  Solving for omega, Initial residual = 9.99903e-11, Final residual = 9.99903e-11, No Iterations 0
ExecutionTime = 181.37 s  ClockTime = 209 s

Time = 5972

DILUPBiCGStab:  Solving for omega, Initial residual = 9.99903e-11, Final residual = 9.99903e-11, No Iterations 0
ExecutionTime = 181.41 s  ClockTime = 209 s

Time = 5973

DILUPBiCGStab:  Solving for omega, Initial residual = 9.99903e-11, Final residual = 9.99903e-11, No Iterations 0
ExecutionTime = 181.44 s  ClockTime = 209 s

Time = 5974

DILUPBiCGStab:  Solving for omega, Initial residual = 9.99903e-11, Final residual = 9.99903e-11, No Iterations 0
ExecutionTime = 181.47 s  ClockTime = 209 s

Time = 5975

DILUPBiCGStab:  Solving for omega, Initial residual = 9.99903e-11, Final residual = 9.99903e-11, No Iterations 0
ExecutionTime = 181.49 s  ClockTime = 209 s

Time = 5976

DILUPBiCGStab:  Solving for omega, Initial residual = 9.99903e-11, Final residual = 9.99903e-11, No Iterations 0
ExecutionTime = 181.52 s  ClockTime = 209 s

Time = 5977

DILUPBiCGStab:  Solving for omega, Initial residual = 9.99903e-11, Final residual = 9.99903e-11, No Iterations 0
ExecutionTime = 181.55 s  ClockTime = 209 s

Time = 5978

DILUPBiCGStab:  Solving for omega, Initial residual = 9.99903e-11, Final residual = 9.99903e-11, No Iterations 0
ExecutionTime = 181.58 s  ClockTime = 209 s

Time = 5979

DILUPBiCGStab:  Solving for omega, Initial residual = 9.99903e-11, Final residual = 9.99903e-11, No Iterations 0
ExecutionTime = 181.61 s  ClockTime = 209 s

Time = 5980

DILUPBiCGStab:  Solving for omega, Initial residual = 9.99903e-11, Final residual = 9.99903e-11, No Iterations 0
ExecutionTime = 181.64 s  ClockTime = 209 s

Time = 5981

DILUPBiCGStab:  Solving for omega, Initial residual = 9.99903e-11, Final residual = 9.99903e-11, No Iterations 0
ExecutionTime = 181.67 s  ClockTime = 210 s

Time = 5982

DILUPBiCGStab:  Solving for omega, Initial residual = 9.99903e-11, Final residual = 9.99903e-11, No Iterations 0
ExecutionTime = 181.7 s  ClockTime = 210 s

Time = 5983

DILUPBiCGStab:  Solving for omega, Initial residual = 9.99903e-11, Final residual = 9.99903e-11, No Iterations 0
ExecutionTime = 181.73 s  ClockTime = 210 s

Time = 5984

DILUPBiCGStab:  Solving for omega, Initial residual = 9.99903e-11, Final residual = 9.99903e-11, No Iterations 0
ExecutionTime = 181.76 s  ClockTime = 210 s

Time = 5985

DILUPBiCGStab:  Solving for omega, Initial residual = 9.99903e-11, Final residual = 9.99903e-11, No Iterations 0
ExecutionTime = 181.79 s  ClockTime = 210 s

Time = 5986

DILUPBiCGStab:  Solving for omega, Initial residual = 9.99903e-11, Final residual = 9.99903e-11, No Iterations 0
ExecutionTime = 181.82 s  ClockTime = 210 s

Time = 5987

DILUPBiCGStab:  Solving for omega, Initial residual = 9.99903e-11, Final residual = 9.99903e-11, No Iterations 0
ExecutionTime = 181.85 s  ClockTime = 210 s

Time = 5988

DILUPBiCGStab:  Solving for omega, Initial residual = 9.99903e-11, Final residual = 9.99903e-11, No Iterations 0
ExecutionTime = 181.88 s  ClockTime = 210 s

Time = 5989

DILUPBiCGStab:  Solving for omega, Initial residual = 9.99903e-11, Final residual = 9.99903e-11, No Iterations 0
ExecutionTime = 181.92 s  ClockTime = 210 s

Time = 5990

DILUPBiCGStab:  Solving for omega, Initial residual = 9.99903e-11, Final residual = 9.99903e-11, No Iterations 0
ExecutionTime = 181.95 s  ClockTime = 210 s

Time = 5991

DILUPBiCGStab:  Solving for omega, Initial residual = 9.99903e-11, Final residual = 9.99903e-11, No Iterations 0
ExecutionTime = 181.98 s  ClockTime = 210 s

Time = 5992

DILUPBiCGStab:  Solving for omega, Initial residual = 9.99903e-11, Final residual = 9.99903e-11, No Iterations 0
ExecutionTime = 182.01 s  ClockTime = 210 s

Time = 5993

DILUPBiCGStab:  Solving for omega, Initial residual = 9.99903e-11, Final residual = 9.99903e-11, No Iterations 0
ExecutionTime = 182.04 s  ClockTime = 210 s

Time = 5994

DILUPBiCGStab:  Solving for omega, Initial residual = 9.99903e-11, Final residual = 9.99903e-11, No Iterations 0
ExecutionTime = 182.07 s  ClockTime = 210 s

Time = 5995

DILUPBiCGStab:  Solving for omega, Initial residual = 9.99903e-11, Final residual = 9.99903e-11, No Iterations 0
ExecutionTime = 182.1 s  ClockTime = 210 s

Time = 5996

DILUPBiCGStab:  Solving for omega, Initial residual = 9.99903e-11, Final residual = 9.99903e-11, No Iterations 0
ExecutionTime = 182.12 s  ClockTime = 210 s

Time = 5997

DILUPBiCGStab:  Solving for omega, Initial residual = 9.99903e-11, Final residual = 9.99903e-11, No Iterations 0
ExecutionTime = 182.15 s  ClockTime = 210 s

Time = 5998

DILUPBiCGStab:  Solving for omega, Initial residual = 9.99903e-11, Final residual = 9.99903e-11, No Iterations 0
ExecutionTime = 182.18 s  ClockTime = 210 s

Time = 5999

DILUPBiCGStab:  Solving for omega, Initial residual = 9.99903e-11, Final residual = 9.99903e-11, No Iterations 0
ExecutionTime = 182.2 s  ClockTime = 210 s

Time = 6000

DILUPBiCGStab:  Solving for omega, Initial residual = 9.99903e-11, Final residual = 9.99903e-11, No Iterations 0
ExecutionTime = 182.33 s  ClockTime = 211 s

yPlus yPlus1 write:
    writing field yPlus
    patch bottom y+ : min = 0.0403774, max = 0.846409, average = 0.439463
End

Finalising parallel run
