/*---------------------------------------------------------------------------*\
| =========                 |                                                 |
| \\      /  F ield         | OpenFOAM: The Open Source CFD Toolbox           |
|  \\    /   O peration     | Version:  2506                                  |
|   \\  /    A nd           | Website:  www.openfoam.com                      |
|    \\/     M anipulation  |                                                 |
\*---------------------------------------------------------------------------*/
Build  : _615aae61-20250627 OPENFOAM=2506 version=2506
Arch   : "LSB;label=32;scalar=64"
Exec   : frozenFoam -parallel
Date   : Oct 06 2025
Time   : 14:45:46
Host   : 4a1ae7be3940
PID    : 4582
I/O    : uncollated
Case   : /home/openfoam/OpenFOAM/openfoam-v2506/run/h42_frozen
nProcs : 4
Hosts  :
(
    (4a1ae7be3940 4)
)
Pstream initialized with:
    node communication : off [type=host] (4 ranks, 1 nodes)
    topology controls  : none
    consensus exchange : 0 (tuning: 0)
    exchange algorithm : 0
    commsType          : nonBlocking
    polling iterations : 0
trapFpe: Floating point exception trapping enabled (FOAM_SIGFPE).
fileModificationChecking : Monitoring run-time modified files using timeStampMaster (fileModificationSkew 5, maxFileModificationPolls 20)
allowSystemOperations : Allowing user-supplied system call operations

// * * * * * * * * * * * * * * * * * * * * * * * * * * * * * * * * * * * * * //
Create time

Create mesh for time = 0


SIMPLE: no convergence criteria found. Calculations will run for 6000 steps.

Reading field p

Reading field U

Reading/calculating face flux field phi

Selecting incompressible transport model Newtonian
Selecting turbulence model type RAS
Selecting RAS turbulence model frozenSST
Selecting patchDistMethod meshWave
RAS
{
    RASModel        frozenSST;
    turbulence      on;
    printCoeffs     on;
    alphaK1         0.85;
    alphaK2         1;
    alphaOmega1     0.5;
    alphaOmega2     0.856;
    gamma1          0.555556;
    gamma2          0.44;
    beta1           0.075;
    beta2           0.0828;
    betaStar        0.09;
    a1              0.31;
    b1              1;
    c1              10;
    F3              false;
    decayControl    false;
    kInf            0;
    omegaInf        0;
}

No MRF models present

No finite volume options present

Starting time loop

--> FOAM Warning : 
    From void Foam::timeControl::read(const Foam::dictionary&)
    in file db/functionObjects/timeControl/timeControl.C at line 131
    Reading "system/controlDict/functions/yPlus1" at line 55
    Found deprecated 'outputControl'
    Use 'writeControl' with 'writeInterval'
Time = 1

DILUPBiCGStab:  Solving for omega, Initial residual = 0.0153437, Final residual = 6.86902e-11, No Iterations 7
ExecutionTime = 0.46 s  ClockTime = 1 s

Time = 2

DILUPBiCGStab:  Solving for omega, Initial residual = 0.162549, Final residual = 6.29759e-11, No Iterations 7
ExecutionTime = 0.49 s  ClockTime = 1 s

Time = 3

DILUPBiCGStab:  Solving for omega, Initial residual = 0.00774347, Final residual = 5.63401e-11, No Iterations 7
ExecutionTime = 0.52 s  ClockTime = 1 s

Time = 4

DILUPBiCGStab:  Solving for omega, Initial residual = 0.00706271, Final residual = 5.41695e-11, No Iterations 7
ExecutionTime = 0.56 s  ClockTime = 1 s

Time = 5

DILUPBiCGStab:  Solving for omega, Initial residual = 0.00295846, Final residual = 6.81665e-11, No Iterations 7
ExecutionTime = 0.6 s  ClockTime = 1 s

Time = 6

DILUPBiCGStab:  Solving for omega, Initial residual = 0.00208371, Final residual = 8.16783e-11, No Iterations 7
ExecutionTime = 0.64 s  ClockTime = 1 s

Time = 7

DILUPBiCGStab:  Solving for omega, Initial residual = 0.00108962, Final residual = 8.55542e-11, No Iterations 8
ExecutionTime = 0.67 s  ClockTime = 1 s

Time = 8

DILUPBiCGStab:  Solving for omega, Initial residual = 0.000685755, Final residual = 6.73164e-11, No Iterations 8
ExecutionTime = 0.71 s  ClockTime = 1 s

Time = 9

DILUPBiCGStab:  Solving for omega, Initial residual = 0.000396179, Final residual = 6.07767e-11, No Iterations 8
ExecutionTime = 0.75 s  ClockTime = 1 s

Time = 10

DILUPBiCGStab:  Solving for omega, Initial residual = 0.000248515, Final residual = 8.60808e-11, No Iterations 8
ExecutionTime = 0.78 s  ClockTime = 1 s

Time = 11

DILUPBiCGStab:  Solving for omega, Initial residual = 0.000156509, Final residual = 8.52863e-11, No Iterations 7
ExecutionTime = 0.82 s  ClockTime = 1 s

Time = 12

DILUPBiCGStab:  Solving for omega, Initial residual = 0.000105288, Final residual = 8.18691e-11, No Iterations 8
ExecutionTime = 0.86 s  ClockTime = 1 s

Time = 13

DILUPBiCGStab:  Solving for omega, Initial residual = 7.43057e-05, Final residual = 6.87822e-11, No Iterations 8
ExecutionTime = 0.89 s  ClockTime = 1 s

Time = 14

DILUPBiCGStab:  Solving for omega, Initial residual = 5.6161e-05, Final residual = 8.38644e-11, No Iterations 7
ExecutionTime = 0.94 s  ClockTime = 1 s

Time = 15

DILUPBiCGStab:  Solving for omega, Initial residual = 4.49168e-05, Final residual = 6.38284e-11, No Iterations 7
ExecutionTime = 0.97 s  ClockTime = 2 s

Time = 16

DILUPBiCGStab:  Solving for omega, Initial residual = 3.79037e-05, Final residual = 5.35769e-11, No Iterations 7
ExecutionTime = 1.01 s  ClockTime = 2 s

Time = 17

DILUPBiCGStab:  Solving for omega, Initial residual = 3.32383e-05, Final residual = 7.79755e-11, No Iterations 7
ExecutionTime = 1.06 s  ClockTime = 2 s

Time = 18

DILUPBiCGStab:  Solving for omega, Initial residual = 3.00358e-05, Final residual = 7.14116e-11, No Iterations 7
ExecutionTime = 1.11 s  ClockTime = 2 s

Time = 19

DILUPBiCGStab:  Solving for omega, Initial residual = 2.76703e-05, Final residual = 6.08482e-11, No Iterations 7
ExecutionTime = 1.15 s  ClockTime = 2 s

Time = 20

DILUPBiCGStab:  Solving for omega, Initial residual = 2.58553e-05, Final residual = 5.07602e-11, No Iterations 7
ExecutionTime = 1.2 s  ClockTime = 2 s

Time = 21

DILUPBiCGStab:  Solving for omega, Initial residual = 2.43646e-05, Final residual = 4.67784e-11, No Iterations 7
ExecutionTime = 1.24 s  ClockTime = 2 s

Time = 22

DILUPBiCGStab:  Solving for omega, Initial residual = 2.31143e-05, Final residual = 4.35283e-11, No Iterations 7
ExecutionTime = 1.28 s  ClockTime = 2 s

Time = 23

DILUPBiCGStab:  Solving for omega, Initial residual = 2.2015e-05, Final residual = 4.13163e-11, No Iterations 7
ExecutionTime = 1.32 s  ClockTime = 2 s

Time = 24

DILUPBiCGStab:  Solving for omega, Initial residual = 2.10442e-05, Final residual = 3.93467e-11, No Iterations 7
ExecutionTime = 1.35 s  ClockTime = 2 s

Time = 25

DILUPBiCGStab:  Solving for omega, Initial residual = 2.01604e-05, Final residual = 9.97583e-11, No Iterations 7
ExecutionTime = 1.39 s  ClockTime = 2 s

Time = 26

DILUPBiCGStab:  Solving for omega, Initial residual = 1.9359e-05, Final residual = 9.20471e-11, No Iterations 7
ExecutionTime = 1.43 s  ClockTime = 2 s

Time = 27

DILUPBiCGStab:  Solving for omega, Initial residual = 1.86183e-05, Final residual = 8.35585e-11, No Iterations 7
ExecutionTime = 1.46 s  ClockTime = 2 s

Time = 28

DILUPBiCGStab:  Solving for omega, Initial residual = 1.79374e-05, Final residual = 7.81252e-11, No Iterations 7
ExecutionTime = 1.5 s  ClockTime = 2 s

Time = 29

DILUPBiCGStab:  Solving for omega, Initial residual = 1.7304e-05, Final residual = 7.40639e-11, No Iterations 7
ExecutionTime = 1.53 s  ClockTime = 2 s

Time = 30

DILUPBiCGStab:  Solving for omega, Initial residual = 1.67168e-05, Final residual = 5.95923e-11, No Iterations 7
ExecutionTime = 1.56 s  ClockTime = 2 s

Time = 31

DILUPBiCGStab:  Solving for omega, Initial residual = 1.61679e-05, Final residual = 5.39875e-11, No Iterations 7
ExecutionTime = 1.6 s  ClockTime = 2 s

Time = 32

DILUPBiCGStab:  Solving for omega, Initial residual = 1.56557e-05, Final residual = 4.4569e-11, No Iterations 7
ExecutionTime = 1.64 s  ClockTime = 2 s

Time = 33

DILUPBiCGStab:  Solving for omega, Initial residual = 1.51748e-05, Final residual = 3.81281e-11, No Iterations 7
ExecutionTime = 1.68 s  ClockTime = 2 s

Time = 34

DILUPBiCGStab:  Solving for omega, Initial residual = 1.4723e-05, Final residual = 3.19561e-11, No Iterations 7
ExecutionTime = 1.72 s  ClockTime = 2 s

Time = 35

DILUPBiCGStab:  Solving for omega, Initial residual = 1.42956e-05, Final residual = 2.69514e-11, No Iterations 7
ExecutionTime = 1.76 s  ClockTime = 2 s

Time = 36

DILUPBiCGStab:  Solving for omega, Initial residual = 1.3891e-05, Final residual = 2.29815e-11, No Iterations 7
ExecutionTime = 1.8 s  ClockTime = 2 s

Time = 37

DILUPBiCGStab:  Solving for omega, Initial residual = 1.35086e-05, Final residual = 2.00092e-11, No Iterations 7
ExecutionTime = 1.86 s  ClockTime = 3 s

Time = 38

DILUPBiCGStab:  Solving for omega, Initial residual = 1.31472e-05, Final residual = 8.2979e-11, No Iterations 6
ExecutionTime = 1.9 s  ClockTime = 3 s

Time = 39

DILUPBiCGStab:  Solving for omega, Initial residual = 1.28051e-05, Final residual = 5.6949e-11, No Iterations 6
ExecutionTime = 1.94 s  ClockTime = 3 s

Time = 40

DILUPBiCGStab:  Solving for omega, Initial residual = 1.24809e-05, Final residual = 9.6084e-11, No Iterations 6
ExecutionTime = 1.98 s  ClockTime = 3 s

Time = 41

DILUPBiCGStab:  Solving for omega, Initial residual = 1.21732e-05, Final residual = 8.82588e-11, No Iterations 6
ExecutionTime = 2.03 s  ClockTime = 3 s

Time = 42

DILUPBiCGStab:  Solving for omega, Initial residual = 1.18808e-05, Final residual = 7.2108e-11, No Iterations 6
ExecutionTime = 2.07 s  ClockTime = 3 s

Time = 43

DILUPBiCGStab:  Solving for omega, Initial residual = 1.16024e-05, Final residual = 5.98158e-11, No Iterations 6
ExecutionTime = 2.12 s  ClockTime = 3 s

Time = 44

DILUPBiCGStab:  Solving for omega, Initial residual = 1.1337e-05, Final residual = 9.64981e-11, No Iterations 5
ExecutionTime = 2.16 s  ClockTime = 3 s

Time = 45

DILUPBiCGStab:  Solving for omega, Initial residual = 1.10835e-05, Final residual = 8.76101e-11, No Iterations 5
ExecutionTime = 2.2 s  ClockTime = 3 s

Time = 46

DILUPBiCGStab:  Solving for omega, Initial residual = 1.08411e-05, Final residual = 8.89704e-11, No Iterations 5
ExecutionTime = 2.23 s  ClockTime = 3 s

Time = 47

DILUPBiCGStab:  Solving for omega, Initial residual = 1.0609e-05, Final residual = 9.84297e-11, No Iterations 5
ExecutionTime = 2.27 s  ClockTime = 3 s

Time = 48

DILUPBiCGStab:  Solving for omega, Initial residual = 1.03865e-05, Final residual = 4.86147e-11, No Iterations 6
ExecutionTime = 2.33 s  ClockTime = 3 s

Time = 49

DILUPBiCGStab:  Solving for omega, Initial residual = 1.01728e-05, Final residual = 4.73208e-11, No Iterations 6
ExecutionTime = 2.37 s  ClockTime = 3 s

Time = 50

DILUPBiCGStab:  Solving for omega, Initial residual = 9.96739e-06, Final residual = 4.73157e-11, No Iterations 6
ExecutionTime = 2.41 s  ClockTime = 3 s

Time = 51

DILUPBiCGStab:  Solving for omega, Initial residual = 9.76958e-06, Final residual = 4.72282e-11, No Iterations 6
ExecutionTime = 2.46 s  ClockTime = 3 s

Time = 52

DILUPBiCGStab:  Solving for omega, Initial residual = 9.57878e-06, Final residual = 9.45547e-11, No Iterations 5
ExecutionTime = 2.5 s  ClockTime = 3 s

Time = 53

DILUPBiCGStab:  Solving for omega, Initial residual = 9.39438e-06, Final residual = 8.41884e-11, No Iterations 5
ExecutionTime = 2.54 s  ClockTime = 3 s

Time = 54

DILUPBiCGStab:  Solving for omega, Initial residual = 9.21584e-06, Final residual = 7.2931e-11, No Iterations 5
ExecutionTime = 2.58 s  ClockTime = 3 s

Time = 55

DILUPBiCGStab:  Solving for omega, Initial residual = 9.04265e-06, Final residual = 6.79551e-11, No Iterations 5
ExecutionTime = 2.62 s  ClockTime = 3 s

Time = 56

DILUPBiCGStab:  Solving for omega, Initial residual = 8.8743e-06, Final residual = 7.38969e-11, No Iterations 5
ExecutionTime = 2.67 s  ClockTime = 3 s

Time = 57

DILUPBiCGStab:  Solving for omega, Initial residual = 8.71031e-06, Final residual = 8.62194e-11, No Iterations 5
ExecutionTime = 2.72 s  ClockTime = 4 s

Time = 58

DILUPBiCGStab:  Solving for omega, Initial residual = 8.55023e-06, Final residual = 9.60493e-11, No Iterations 5
ExecutionTime = 2.76 s  ClockTime = 4 s

Time = 59

DILUPBiCGStab:  Solving for omega, Initial residual = 8.39367e-06, Final residual = 9.9977e-11, No Iterations 5
ExecutionTime = 2.81 s  ClockTime = 4 s

Time = 60

DILUPBiCGStab:  Solving for omega, Initial residual = 8.2403e-06, Final residual = 5.21495e-11, No Iterations 6
ExecutionTime = 2.86 s  ClockTime = 4 s

Time = 61

DILUPBiCGStab:  Solving for omega, Initial residual = 8.08984e-06, Final residual = 4.9409e-11, No Iterations 6
ExecutionTime = 2.9 s  ClockTime = 4 s

Time = 62

DILUPBiCGStab:  Solving for omega, Initial residual = 7.94208e-06, Final residual = 9.86854e-11, No Iterations 5
ExecutionTime = 2.94 s  ClockTime = 4 s

Time = 63

DILUPBiCGStab:  Solving for omega, Initial residual = 7.79691e-06, Final residual = 9.68097e-11, No Iterations 5
ExecutionTime = 2.99 s  ClockTime = 4 s

Time = 64

DILUPBiCGStab:  Solving for omega, Initial residual = 7.65426e-06, Final residual = 9.49055e-11, No Iterations 5
ExecutionTime = 3.03 s  ClockTime = 4 s

Time = 65

DILUPBiCGStab:  Solving for omega, Initial residual = 7.51415e-06, Final residual = 9.29344e-11, No Iterations 5
ExecutionTime = 3.08 s  ClockTime = 4 s

Time = 66

DILUPBiCGStab:  Solving for omega, Initial residual = 7.37658e-06, Final residual = 9.09722e-11, No Iterations 5
ExecutionTime = 3.12 s  ClockTime = 4 s

Time = 67

DILUPBiCGStab:  Solving for omega, Initial residual = 7.24161e-06, Final residual = 8.9078e-11, No Iterations 5
ExecutionTime = 3.16 s  ClockTime = 4 s

Time = 68

DILUPBiCGStab:  Solving for omega, Initial residual = 7.10932e-06, Final residual = 8.71901e-11, No Iterations 5
ExecutionTime = 3.2 s  ClockTime = 4 s

Time = 69

DILUPBiCGStab:  Solving for omega, Initial residual = 6.97975e-06, Final residual = 8.5375e-11, No Iterations 5
ExecutionTime = 3.25 s  ClockTime = 4 s

Time = 70

DILUPBiCGStab:  Solving for omega, Initial residual = 6.85293e-06, Final residual = 8.36913e-11, No Iterations 5
ExecutionTime = 3.3 s  ClockTime = 4 s

Time = 71

DILUPBiCGStab:  Solving for omega, Initial residual = 6.72886e-06, Final residual = 8.21028e-11, No Iterations 5
ExecutionTime = 3.34 s  ClockTime = 4 s

Time = 72

DILUPBiCGStab:  Solving for omega, Initial residual = 6.60751e-06, Final residual = 8.06318e-11, No Iterations 5
ExecutionTime = 3.38 s  ClockTime = 4 s

Time = 73

DILUPBiCGStab:  Solving for omega, Initial residual = 6.48884e-06, Final residual = 7.93026e-11, No Iterations 5
ExecutionTime = 3.41 s  ClockTime = 4 s

Time = 74

DILUPBiCGStab:  Solving for omega, Initial residual = 6.37278e-06, Final residual = 7.80848e-11, No Iterations 5
ExecutionTime = 3.45 s  ClockTime = 4 s

Time = 75

DILUPBiCGStab:  Solving for omega, Initial residual = 6.25923e-06, Final residual = 7.70671e-11, No Iterations 5
ExecutionTime = 3.48 s  ClockTime = 4 s

Time = 76

DILUPBiCGStab:  Solving for omega, Initial residual = 6.14812e-06, Final residual = 7.63915e-11, No Iterations 5
ExecutionTime = 3.52 s  ClockTime = 4 s

Time = 77

DILUPBiCGStab:  Solving for omega, Initial residual = 6.03933e-06, Final residual = 7.63637e-11, No Iterations 5
ExecutionTime = 3.55 s  ClockTime = 5 s

Time = 78

DILUPBiCGStab:  Solving for omega, Initial residual = 5.93276e-06, Final residual = 7.77041e-11, No Iterations 5
ExecutionTime = 3.6 s  ClockTime = 5 s

Time = 79

DILUPBiCGStab:  Solving for omega, Initial residual = 5.82831e-06, Final residual = 8.30343e-11, No Iterations 5
ExecutionTime = 3.64 s  ClockTime = 5 s

Time = 80

DILUPBiCGStab:  Solving for omega, Initial residual = 5.72589e-06, Final residual = 9.90162e-11, No Iterations 5
ExecutionTime = 3.69 s  ClockTime = 5 s

Time = 81

DILUPBiCGStab:  Solving for omega, Initial residual = 5.62539e-06, Final residual = 8.84324e-11, No Iterations 5
ExecutionTime = 3.74 s  ClockTime = 5 s

Time = 82

DILUPBiCGStab:  Solving for omega, Initial residual = 5.52675e-06, Final residual = 8.31818e-11, No Iterations 5
ExecutionTime = 3.79 s  ClockTime = 5 s

Time = 83

DILUPBiCGStab:  Solving for omega, Initial residual = 5.42986e-06, Final residual = 5.34915e-11, No Iterations 5
ExecutionTime = 3.84 s  ClockTime = 5 s

Time = 84

DILUPBiCGStab:  Solving for omega, Initial residual = 5.33468e-06, Final residual = 5.53952e-11, No Iterations 5
ExecutionTime = 3.89 s  ClockTime = 5 s

Time = 85

DILUPBiCGStab:  Solving for omega, Initial residual = 5.24113e-06, Final residual = 5.41224e-11, No Iterations 5
ExecutionTime = 3.93 s  ClockTime = 5 s

Time = 86

DILUPBiCGStab:  Solving for omega, Initial residual = 5.14914e-06, Final residual = 5.27656e-11, No Iterations 5
ExecutionTime = 3.97 s  ClockTime = 5 s

Time = 87

DILUPBiCGStab:  Solving for omega, Initial residual = 5.05867e-06, Final residual = 5.13741e-11, No Iterations 5
ExecutionTime = 4.02 s  ClockTime = 5 s

Time = 88

DILUPBiCGStab:  Solving for omega, Initial residual = 4.96966e-06, Final residual = 4.99873e-11, No Iterations 5
ExecutionTime = 4.08 s  ClockTime = 5 s

Time = 89

DILUPBiCGStab:  Solving for omega, Initial residual = 4.88208e-06, Final residual = 4.86223e-11, No Iterations 5
ExecutionTime = 4.12 s  ClockTime = 5 s

Time = 90

DILUPBiCGStab:  Solving for omega, Initial residual = 4.79589e-06, Final residual = 4.72888e-11, No Iterations 5
ExecutionTime = 4.16 s  ClockTime = 5 s

Time = 91

DILUPBiCGStab:  Solving for omega, Initial residual = 4.71107e-06, Final residual = 4.59907e-11, No Iterations 5
ExecutionTime = 4.21 s  ClockTime = 5 s

Time = 92

DILUPBiCGStab:  Solving for omega, Initial residual = 4.62758e-06, Final residual = 9.64572e-11, No Iterations 5
ExecutionTime = 4.24 s  ClockTime = 5 s

Time = 93

DILUPBiCGStab:  Solving for omega, Initial residual = 4.54542e-06, Final residual = 9.23679e-11, No Iterations 5
ExecutionTime = 4.28 s  ClockTime = 5 s

Time = 94

DILUPBiCGStab:  Solving for omega, Initial residual = 4.46455e-06, Final residual = 8.8434e-11, No Iterations 5
ExecutionTime = 4.32 s  ClockTime = 5 s

Time = 95

DILUPBiCGStab:  Solving for omega, Initial residual = 4.38499e-06, Final residual = 8.46885e-11, No Iterations 5
ExecutionTime = 4.36 s  ClockTime = 5 s

Time = 96

DILUPBiCGStab:  Solving for omega, Initial residual = 4.30672e-06, Final residual = 8.11253e-11, No Iterations 5
ExecutionTime = 4.4 s  ClockTime = 5 s

Time = 97

DILUPBiCGStab:  Solving for omega, Initial residual = 4.22974e-06, Final residual = 7.78269e-11, No Iterations 5
ExecutionTime = 4.44 s  ClockTime = 6 s

Time = 98

DILUPBiCGStab:  Solving for omega, Initial residual = 4.15406e-06, Final residual = 7.49009e-11, No Iterations 5
ExecutionTime = 4.48 s  ClockTime = 6 s

Time = 99

DILUPBiCGStab:  Solving for omega, Initial residual = 4.07967e-06, Final residual = 7.23095e-11, No Iterations 5
ExecutionTime = 4.53 s  ClockTime = 6 s

Time = 100

DILUPBiCGStab:  Solving for omega, Initial residual = 4.00658e-06, Final residual = 7.00103e-11, No Iterations 5
ExecutionTime = 4.58 s  ClockTime = 6 s

Time = 101

DILUPBiCGStab:  Solving for omega, Initial residual = 3.9348e-06, Final residual = 6.78978e-11, No Iterations 5
ExecutionTime = 4.63 s  ClockTime = 6 s

Time = 102

DILUPBiCGStab:  Solving for omega, Initial residual = 3.86433e-06, Final residual = 6.59553e-11, No Iterations 5
ExecutionTime = 4.68 s  ClockTime = 6 s

Time = 103

DILUPBiCGStab:  Solving for omega, Initial residual = 3.79518e-06, Final residual = 6.41287e-11, No Iterations 5
ExecutionTime = 4.72 s  ClockTime = 6 s

Time = 104

DILUPBiCGStab:  Solving for omega, Initial residual = 3.72735e-06, Final residual = 6.24023e-11, No Iterations 5
ExecutionTime = 4.76 s  ClockTime = 6 s

Time = 105

DILUPBiCGStab:  Solving for omega, Initial residual = 3.66085e-06, Final residual = 6.07354e-11, No Iterations 5
ExecutionTime = 4.81 s  ClockTime = 6 s

Time = 106

DILUPBiCGStab:  Solving for omega, Initial residual = 3.59568e-06, Final residual = 5.91357e-11, No Iterations 5
ExecutionTime = 4.85 s  ClockTime = 6 s

Time = 107

DILUPBiCGStab:  Solving for omega, Initial residual = 3.53184e-06, Final residual = 5.75347e-11, No Iterations 5
ExecutionTime = 4.88 s  ClockTime = 6 s

Time = 108

DILUPBiCGStab:  Solving for omega, Initial residual = 3.46933e-06, Final residual = 5.59448e-11, No Iterations 5
ExecutionTime = 4.92 s  ClockTime = 6 s

Time = 109

DILUPBiCGStab:  Solving for omega, Initial residual = 3.40815e-06, Final residual = 9.88113e-11, No Iterations 4
ExecutionTime = 4.96 s  ClockTime = 6 s

Time = 110

DILUPBiCGStab:  Solving for omega, Initial residual = 3.34828e-06, Final residual = 9.641e-11, No Iterations 4
ExecutionTime = 5 s  ClockTime = 6 s

Time = 111

DILUPBiCGStab:  Solving for omega, Initial residual = 3.28972e-06, Final residual = 9.39914e-11, No Iterations 4
ExecutionTime = 5.04 s  ClockTime = 6 s

Time = 112

DILUPBiCGStab:  Solving for omega, Initial residual = 3.23245e-06, Final residual = 9.15095e-11, No Iterations 4
ExecutionTime = 5.08 s  ClockTime = 6 s

Time = 113

DILUPBiCGStab:  Solving for omega, Initial residual = 3.17646e-06, Final residual = 8.8961e-11, No Iterations 4
ExecutionTime = 5.13 s  ClockTime = 6 s

Time = 114

DILUPBiCGStab:  Solving for omega, Initial residual = 3.12174e-06, Final residual = 8.63749e-11, No Iterations 4
ExecutionTime = 5.18 s  ClockTime = 6 s

Time = 115

DILUPBiCGStab:  Solving for omega, Initial residual = 3.06824e-06, Final residual = 8.37198e-11, No Iterations 4
ExecutionTime = 5.22 s  ClockTime = 6 s

Time = 116

DILUPBiCGStab:  Solving for omega, Initial residual = 3.01596e-06, Final residual = 8.09855e-11, No Iterations 4
ExecutionTime = 5.26 s  ClockTime = 6 s

Time = 117

DILUPBiCGStab:  Solving for omega, Initial residual = 2.96487e-06, Final residual = 7.82538e-11, No Iterations 4
ExecutionTime = 5.33 s  ClockTime = 7 s

Time = 118

DILUPBiCGStab:  Solving for omega, Initial residual = 2.91494e-06, Final residual = 7.54681e-11, No Iterations 4
ExecutionTime = 5.38 s  ClockTime = 7 s

Time = 119

DILUPBiCGStab:  Solving for omega, Initial residual = 2.86613e-06, Final residual = 7.2632e-11, No Iterations 4
ExecutionTime = 5.43 s  ClockTime = 7 s

Time = 120

DILUPBiCGStab:  Solving for omega, Initial residual = 2.81843e-06, Final residual = 6.98919e-11, No Iterations 4
ExecutionTime = 5.47 s  ClockTime = 7 s

Time = 121

DILUPBiCGStab:  Solving for omega, Initial residual = 2.77179e-06, Final residual = 6.72087e-11, No Iterations 4
ExecutionTime = 5.52 s  ClockTime = 7 s

Time = 122

DILUPBiCGStab:  Solving for omega, Initial residual = 2.72618e-06, Final residual = 6.4624e-11, No Iterations 4
ExecutionTime = 5.56 s  ClockTime = 7 s

Time = 123

DILUPBiCGStab:  Solving for omega, Initial residual = 2.68157e-06, Final residual = 6.20967e-11, No Iterations 4
ExecutionTime = 5.61 s  ClockTime = 7 s

Time = 124

DILUPBiCGStab:  Solving for omega, Initial residual = 2.63792e-06, Final residual = 5.98909e-11, No Iterations 4
ExecutionTime = 5.65 s  ClockTime = 7 s

Time = 125

DILUPBiCGStab:  Solving for omega, Initial residual = 2.59522e-06, Final residual = 5.77369e-11, No Iterations 4
ExecutionTime = 5.69 s  ClockTime = 7 s

Time = 126

DILUPBiCGStab:  Solving for omega, Initial residual = 2.55341e-06, Final residual = 5.56131e-11, No Iterations 4
ExecutionTime = 5.73 s  ClockTime = 7 s

Time = 127

DILUPBiCGStab:  Solving for omega, Initial residual = 2.51248e-06, Final residual = 5.40176e-11, No Iterations 4
ExecutionTime = 5.78 s  ClockTime = 7 s

Time = 128

DILUPBiCGStab:  Solving for omega, Initial residual = 2.4724e-06, Final residual = 5.19064e-11, No Iterations 4
ExecutionTime = 5.82 s  ClockTime = 7 s

Time = 129

DILUPBiCGStab:  Solving for omega, Initial residual = 2.43313e-06, Final residual = 4.9508e-11, No Iterations 4
ExecutionTime = 5.87 s  ClockTime = 7 s

Time = 130

DILUPBiCGStab:  Solving for omega, Initial residual = 2.39464e-06, Final residual = 9.86197e-11, No Iterations 4
ExecutionTime = 5.91 s  ClockTime = 7 s

Time = 131

DILUPBiCGStab:  Solving for omega, Initial residual = 2.35691e-06, Final residual = 9.42688e-11, No Iterations 4
ExecutionTime = 5.95 s  ClockTime = 7 s

Time = 132

DILUPBiCGStab:  Solving for omega, Initial residual = 2.31991e-06, Final residual = 9.09039e-11, No Iterations 4
ExecutionTime = 6 s  ClockTime = 7 s

Time = 133

DILUPBiCGStab:  Solving for omega, Initial residual = 2.28361e-06, Final residual = 8.75239e-11, No Iterations 4
ExecutionTime = 6.04 s  ClockTime = 7 s

Time = 134

DILUPBiCGStab:  Solving for omega, Initial residual = 2.24799e-06, Final residual = 8.42384e-11, No Iterations 4
ExecutionTime = 6.09 s  ClockTime = 7 s

Time = 135

DILUPBiCGStab:  Solving for omega, Initial residual = 2.21303e-06, Final residual = 8.10284e-11, No Iterations 4
ExecutionTime = 6.14 s  ClockTime = 7 s

Time = 136

DILUPBiCGStab:  Solving for omega, Initial residual = 2.17869e-06, Final residual = 7.79268e-11, No Iterations 4
ExecutionTime = 6.18 s  ClockTime = 7 s

Time = 137

DILUPBiCGStab:  Solving for omega, Initial residual = 2.14496e-06, Final residual = 7.49253e-11, No Iterations 4
ExecutionTime = 6.23 s  ClockTime = 8 s

Time = 138

DILUPBiCGStab:  Solving for omega, Initial residual = 2.11182e-06, Final residual = 7.20331e-11, No Iterations 4
ExecutionTime = 6.28 s  ClockTime = 8 s

Time = 139

DILUPBiCGStab:  Solving for omega, Initial residual = 2.07924e-06, Final residual = 6.92558e-11, No Iterations 4
ExecutionTime = 6.34 s  ClockTime = 8 s

Time = 140

DILUPBiCGStab:  Solving for omega, Initial residual = 2.04722e-06, Final residual = 6.65949e-11, No Iterations 4
ExecutionTime = 6.38 s  ClockTime = 8 s

Time = 141

DILUPBiCGStab:  Solving for omega, Initial residual = 2.01572e-06, Final residual = 6.40539e-11, No Iterations 4
ExecutionTime = 6.44 s  ClockTime = 8 s

Time = 142

DILUPBiCGStab:  Solving for omega, Initial residual = 1.98473e-06, Final residual = 6.16349e-11, No Iterations 4
ExecutionTime = 6.48 s  ClockTime = 8 s

Time = 143

DILUPBiCGStab:  Solving for omega, Initial residual = 1.95424e-06, Final residual = 5.93399e-11, No Iterations 4
ExecutionTime = 6.53 s  ClockTime = 8 s

Time = 144

DILUPBiCGStab:  Solving for omega, Initial residual = 1.92422e-06, Final residual = 5.71666e-11, No Iterations 4
ExecutionTime = 6.58 s  ClockTime = 8 s

Time = 145

DILUPBiCGStab:  Solving for omega, Initial residual = 1.89467e-06, Final residual = 5.51134e-11, No Iterations 4
ExecutionTime = 6.62 s  ClockTime = 8 s

Time = 146

DILUPBiCGStab:  Solving for omega, Initial residual = 1.86558e-06, Final residual = 5.31781e-11, No Iterations 4
ExecutionTime = 6.67 s  ClockTime = 8 s

Time = 147

DILUPBiCGStab:  Solving for omega, Initial residual = 1.83691e-06, Final residual = 5.13569e-11, No Iterations 4
ExecutionTime = 6.71 s  ClockTime = 8 s

Time = 148

DILUPBiCGStab:  Solving for omega, Initial residual = 1.80867e-06, Final residual = 4.96469e-11, No Iterations 4
ExecutionTime = 6.75 s  ClockTime = 8 s

Time = 149

DILUPBiCGStab:  Solving for omega, Initial residual = 1.78085e-06, Final residual = 4.8041e-11, No Iterations 4
ExecutionTime = 6.79 s  ClockTime = 8 s

Time = 150

DILUPBiCGStab:  Solving for omega, Initial residual = 1.75342e-06, Final residual = 4.65361e-11, No Iterations 4
ExecutionTime = 6.83 s  ClockTime = 8 s

Time = 151

DILUPBiCGStab:  Solving for omega, Initial residual = 1.72638e-06, Final residual = 4.51269e-11, No Iterations 4
ExecutionTime = 6.87 s  ClockTime = 8 s

Time = 152

DILUPBiCGStab:  Solving for omega, Initial residual = 1.69972e-06, Final residual = 4.38102e-11, No Iterations 4
ExecutionTime = 6.91 s  ClockTime = 8 s

Time = 153

DILUPBiCGStab:  Solving for omega, Initial residual = 1.67343e-06, Final residual = 4.25802e-11, No Iterations 4
ExecutionTime = 6.96 s  ClockTime = 8 s

Time = 154

DILUPBiCGStab:  Solving for omega, Initial residual = 1.6475e-06, Final residual = 4.14299e-11, No Iterations 4
ExecutionTime = 7 s  ClockTime = 8 s

Time = 155

DILUPBiCGStab:  Solving for omega, Initial residual = 1.62192e-06, Final residual = 4.03555e-11, No Iterations 4
ExecutionTime = 7.04 s  ClockTime = 8 s

Time = 156

DILUPBiCGStab:  Solving for omega, Initial residual = 1.59668e-06, Final residual = 3.93503e-11, No Iterations 4
ExecutionTime = 7.08 s  ClockTime = 8 s

Time = 157

DILUPBiCGStab:  Solving for omega, Initial residual = 1.57178e-06, Final residual = 3.84083e-11, No Iterations 4
ExecutionTime = 7.13 s  ClockTime = 9 s

Time = 158

DILUPBiCGStab:  Solving for omega, Initial residual = 1.54721e-06, Final residual = 3.75251e-11, No Iterations 4
ExecutionTime = 7.17 s  ClockTime = 9 s

Time = 159

DILUPBiCGStab:  Solving for omega, Initial residual = 1.52296e-06, Final residual = 3.66957e-11, No Iterations 4
ExecutionTime = 7.22 s  ClockTime = 9 s

Time = 160

DILUPBiCGStab:  Solving for omega, Initial residual = 1.49903e-06, Final residual = 3.5916e-11, No Iterations 4
ExecutionTime = 7.27 s  ClockTime = 9 s

Time = 161

DILUPBiCGStab:  Solving for omega, Initial residual = 1.4754e-06, Final residual = 3.51823e-11, No Iterations 4
ExecutionTime = 7.32 s  ClockTime = 9 s

Time = 162

DILUPBiCGStab:  Solving for omega, Initial residual = 1.45208e-06, Final residual = 3.449e-11, No Iterations 4
ExecutionTime = 7.36 s  ClockTime = 9 s

Time = 163

DILUPBiCGStab:  Solving for omega, Initial residual = 1.42907e-06, Final residual = 3.38355e-11, No Iterations 4
ExecutionTime = 7.41 s  ClockTime = 9 s

Time = 164

DILUPBiCGStab:  Solving for omega, Initial residual = 1.40635e-06, Final residual = 3.32157e-11, No Iterations 4
ExecutionTime = 7.45 s  ClockTime = 9 s

Time = 165

DILUPBiCGStab:  Solving for omega, Initial residual = 1.38392e-06, Final residual = 3.26271e-11, No Iterations 4
ExecutionTime = 7.5 s  ClockTime = 9 s

Time = 166

DILUPBiCGStab:  Solving for omega, Initial residual = 1.36177e-06, Final residual = 3.20666e-11, No Iterations 4
ExecutionTime = 7.53 s  ClockTime = 9 s

Time = 167

DILUPBiCGStab:  Solving for omega, Initial residual = 1.33992e-06, Final residual = 3.15314e-11, No Iterations 4
ExecutionTime = 7.58 s  ClockTime = 9 s

Time = 168

DILUPBiCGStab:  Solving for omega, Initial residual = 1.31834e-06, Final residual = 3.10182e-11, No Iterations 4
ExecutionTime = 7.62 s  ClockTime = 9 s

Time = 169

DILUPBiCGStab:  Solving for omega, Initial residual = 1.29704e-06, Final residual = 3.05237e-11, No Iterations 4
ExecutionTime = 7.66 s  ClockTime = 9 s

Time = 170

DILUPBiCGStab:  Solving for omega, Initial residual = 1.27602e-06, Final residual = 3.0047e-11, No Iterations 4
ExecutionTime = 7.71 s  ClockTime = 9 s

Time = 171

DILUPBiCGStab:  Solving for omega, Initial residual = 1.25527e-06, Final residual = 2.95842e-11, No Iterations 4
ExecutionTime = 7.75 s  ClockTime = 9 s

Time = 172

DILUPBiCGStab:  Solving for omega, Initial residual = 1.23478e-06, Final residual = 2.91358e-11, No Iterations 4
ExecutionTime = 7.79 s  ClockTime = 9 s

Time = 173

DILUPBiCGStab:  Solving for omega, Initial residual = 1.21457e-06, Final residual = 2.86995e-11, No Iterations 4
ExecutionTime = 7.83 s  ClockTime = 9 s

Time = 174

DILUPBiCGStab:  Solving for omega, Initial residual = 1.19462e-06, Final residual = 2.82741e-11, No Iterations 4
ExecutionTime = 7.88 s  ClockTime = 9 s

Time = 175

DILUPBiCGStab:  Solving for omega, Initial residual = 1.17493e-06, Final residual = 2.78601e-11, No Iterations 4
ExecutionTime = 7.91 s  ClockTime = 9 s

Time = 176

DILUPBiCGStab:  Solving for omega, Initial residual = 1.1555e-06, Final residual = 2.74565e-11, No Iterations 4
ExecutionTime = 7.94 s  ClockTime = 9 s

Time = 177

DILUPBiCGStab:  Solving for omega, Initial residual = 1.13633e-06, Final residual = 2.70628e-11, No Iterations 4
ExecutionTime = 7.98 s  ClockTime = 9 s

Time = 178

DILUPBiCGStab:  Solving for omega, Initial residual = 1.11742e-06, Final residual = 2.66791e-11, No Iterations 4
ExecutionTime = 8.01 s  ClockTime = 9 s

Time = 179

DILUPBiCGStab:  Solving for omega, Initial residual = 1.09875e-06, Final residual = 2.63049e-11, No Iterations 4
ExecutionTime = 8.05 s  ClockTime = 10 s

Time = 180

DILUPBiCGStab:  Solving for omega, Initial residual = 1.08034e-06, Final residual = 2.59389e-11, No Iterations 4
ExecutionTime = 8.09 s  ClockTime = 10 s

Time = 181

DILUPBiCGStab:  Solving for omega, Initial residual = 1.06218e-06, Final residual = 2.55809e-11, No Iterations 4
ExecutionTime = 8.13 s  ClockTime = 10 s

Time = 182

DILUPBiCGStab:  Solving for omega, Initial residual = 1.04427e-06, Final residual = 2.52306e-11, No Iterations 4
ExecutionTime = 8.18 s  ClockTime = 10 s

Time = 183

DILUPBiCGStab:  Solving for omega, Initial residual = 1.0266e-06, Final residual = 2.48871e-11, No Iterations 4
ExecutionTime = 8.24 s  ClockTime = 10 s

Time = 184

DILUPBiCGStab:  Solving for omega, Initial residual = 1.00917e-06, Final residual = 2.455e-11, No Iterations 4
ExecutionTime = 8.28 s  ClockTime = 10 s

Time = 185

DILUPBiCGStab:  Solving for omega, Initial residual = 9.91989e-07, Final residual = 2.42188e-11, No Iterations 4
ExecutionTime = 8.32 s  ClockTime = 10 s

Time = 186

DILUPBiCGStab:  Solving for omega, Initial residual = 9.75045e-07, Final residual = 2.38938e-11, No Iterations 4
ExecutionTime = 8.36 s  ClockTime = 10 s

Time = 187

DILUPBiCGStab:  Solving for omega, Initial residual = 9.58338e-07, Final residual = 2.35739e-11, No Iterations 4
ExecutionTime = 8.39 s  ClockTime = 10 s

Time = 188

DILUPBiCGStab:  Solving for omega, Initial residual = 9.41867e-07, Final residual = 2.32584e-11, No Iterations 4
ExecutionTime = 8.43 s  ClockTime = 10 s

Time = 189

DILUPBiCGStab:  Solving for omega, Initial residual = 9.25629e-07, Final residual = 2.29467e-11, No Iterations 4
ExecutionTime = 8.46 s  ClockTime = 10 s

Time = 190

DILUPBiCGStab:  Solving for omega, Initial residual = 9.09624e-07, Final residual = 9.90128e-11, No Iterations 3
ExecutionTime = 8.49 s  ClockTime = 10 s

Time = 191

DILUPBiCGStab:  Solving for omega, Initial residual = 8.9385e-07, Final residual = 2.40908e-11, No Iterations 4
ExecutionTime = 8.53 s  ClockTime = 10 s

Time = 192

DILUPBiCGStab:  Solving for omega, Initial residual = 8.78302e-07, Final residual = 9.73112e-11, No Iterations 3
ExecutionTime = 8.57 s  ClockTime = 10 s

Time = 193

DILUPBiCGStab:  Solving for omega, Initial residual = 8.62982e-07, Final residual = 2.34771e-11, No Iterations 4
ExecutionTime = 8.61 s  ClockTime = 10 s

Time = 194

DILUPBiCGStab:  Solving for omega, Initial residual = 8.47884e-07, Final residual = 9.50978e-11, No Iterations 3
ExecutionTime = 8.64 s  ClockTime = 10 s

Time = 195

DILUPBiCGStab:  Solving for omega, Initial residual = 8.33009e-07, Final residual = 9.8109e-11, No Iterations 3
ExecutionTime = 8.67 s  ClockTime = 10 s

Time = 196

DILUPBiCGStab:  Solving for omega, Initial residual = 8.18355e-07, Final residual = 9.7361e-11, No Iterations 3
ExecutionTime = 8.7 s  ClockTime = 10 s

Time = 197

DILUPBiCGStab:  Solving for omega, Initial residual = 8.03918e-07, Final residual = 9.6232e-11, No Iterations 3
ExecutionTime = 8.73 s  ClockTime = 10 s

Time = 198

DILUPBiCGStab:  Solving for omega, Initial residual = 7.89698e-07, Final residual = 9.50564e-11, No Iterations 3
ExecutionTime = 8.76 s  ClockTime = 10 s

Time = 199

DILUPBiCGStab:  Solving for omega, Initial residual = 7.75691e-07, Final residual = 9.38745e-11, No Iterations 3
ExecutionTime = 8.79 s  ClockTime = 10 s

Time = 200

DILUPBiCGStab:  Solving for omega, Initial residual = 7.61895e-07, Final residual = 9.26933e-11, No Iterations 3
ExecutionTime = 8.82 s  ClockTime = 10 s

Time = 201

DILUPBiCGStab:  Solving for omega, Initial residual = 7.48309e-07, Final residual = 9.15139e-11, No Iterations 3
ExecutionTime = 8.85 s  ClockTime = 10 s

Time = 202

DILUPBiCGStab:  Solving for omega, Initial residual = 7.34931e-07, Final residual = 9.0337e-11, No Iterations 3
ExecutionTime = 8.88 s  ClockTime = 10 s

Time = 203

DILUPBiCGStab:  Solving for omega, Initial residual = 7.21758e-07, Final residual = 8.91635e-11, No Iterations 3
ExecutionTime = 8.91 s  ClockTime = 10 s

Time = 204

DILUPBiCGStab:  Solving for omega, Initial residual = 7.08789e-07, Final residual = 8.79945e-11, No Iterations 3
ExecutionTime = 8.95 s  ClockTime = 11 s

Time = 205

DILUPBiCGStab:  Solving for omega, Initial residual = 6.96021e-07, Final residual = 8.6829e-11, No Iterations 3
ExecutionTime = 8.98 s  ClockTime = 11 s

Time = 206

DILUPBiCGStab:  Solving for omega, Initial residual = 6.83452e-07, Final residual = 8.5667e-11, No Iterations 3
ExecutionTime = 9.02 s  ClockTime = 11 s

Time = 207

DILUPBiCGStab:  Solving for omega, Initial residual = 6.7108e-07, Final residual = 8.45089e-11, No Iterations 3
ExecutionTime = 9.04 s  ClockTime = 11 s

Time = 208

DILUPBiCGStab:  Solving for omega, Initial residual = 6.58903e-07, Final residual = 8.33552e-11, No Iterations 3
ExecutionTime = 9.07 s  ClockTime = 11 s

Time = 209

DILUPBiCGStab:  Solving for omega, Initial residual = 6.46919e-07, Final residual = 8.22064e-11, No Iterations 3
ExecutionTime = 9.11 s  ClockTime = 11 s

Time = 210

DILUPBiCGStab:  Solving for omega, Initial residual = 6.35126e-07, Final residual = 8.10631e-11, No Iterations 3
ExecutionTime = 9.13 s  ClockTime = 11 s

Time = 211

DILUPBiCGStab:  Solving for omega, Initial residual = 6.23521e-07, Final residual = 7.99257e-11, No Iterations 3
ExecutionTime = 9.17 s  ClockTime = 11 s

Time = 212

DILUPBiCGStab:  Solving for omega, Initial residual = 6.12102e-07, Final residual = 7.87946e-11, No Iterations 3
ExecutionTime = 9.2 s  ClockTime = 11 s

Time = 213

DILUPBiCGStab:  Solving for omega, Initial residual = 6.00867e-07, Final residual = 7.76704e-11, No Iterations 3
ExecutionTime = 9.24 s  ClockTime = 11 s

Time = 214

DILUPBiCGStab:  Solving for omega, Initial residual = 5.89815e-07, Final residual = 7.65535e-11, No Iterations 3
ExecutionTime = 9.27 s  ClockTime = 11 s

Time = 215

DILUPBiCGStab:  Solving for omega, Initial residual = 5.78942e-07, Final residual = 7.54441e-11, No Iterations 3
ExecutionTime = 9.31 s  ClockTime = 11 s

Time = 216

DILUPBiCGStab:  Solving for omega, Initial residual = 5.68247e-07, Final residual = 7.43423e-11, No Iterations 3
ExecutionTime = 9.34 s  ClockTime = 11 s

Time = 217

DILUPBiCGStab:  Solving for omega, Initial residual = 5.57728e-07, Final residual = 7.32476e-11, No Iterations 3
ExecutionTime = 9.38 s  ClockTime = 11 s

Time = 218

DILUPBiCGStab:  Solving for omega, Initial residual = 5.47382e-07, Final residual = 7.21608e-11, No Iterations 3
ExecutionTime = 9.41 s  ClockTime = 11 s

Time = 219

DILUPBiCGStab:  Solving for omega, Initial residual = 5.37207e-07, Final residual = 7.10821e-11, No Iterations 3
ExecutionTime = 9.45 s  ClockTime = 11 s

Time = 220

DILUPBiCGStab:  Solving for omega, Initial residual = 5.27202e-07, Final residual = 7.00121e-11, No Iterations 3
ExecutionTime = 9.49 s  ClockTime = 11 s

Time = 221

DILUPBiCGStab:  Solving for omega, Initial residual = 5.17363e-07, Final residual = 6.89509e-11, No Iterations 3
ExecutionTime = 9.52 s  ClockTime = 11 s

Time = 222

DILUPBiCGStab:  Solving for omega, Initial residual = 5.07689e-07, Final residual = 6.78987e-11, No Iterations 3
ExecutionTime = 9.55 s  ClockTime = 11 s

Time = 223

DILUPBiCGStab:  Solving for omega, Initial residual = 4.98178e-07, Final residual = 6.6856e-11, No Iterations 3
ExecutionTime = 9.58 s  ClockTime = 11 s

Time = 224

DILUPBiCGStab:  Solving for omega, Initial residual = 4.88828e-07, Final residual = 6.58229e-11, No Iterations 3
ExecutionTime = 9.61 s  ClockTime = 11 s

Time = 225

DILUPBiCGStab:  Solving for omega, Initial residual = 4.79635e-07, Final residual = 6.47994e-11, No Iterations 3
ExecutionTime = 9.64 s  ClockTime = 11 s

Time = 226

DILUPBiCGStab:  Solving for omega, Initial residual = 4.706e-07, Final residual = 6.37858e-11, No Iterations 3
ExecutionTime = 9.67 s  ClockTime = 11 s

Time = 227

DILUPBiCGStab:  Solving for omega, Initial residual = 4.61718e-07, Final residual = 6.2782e-11, No Iterations 3
ExecutionTime = 9.7 s  ClockTime = 11 s

Time = 228

DILUPBiCGStab:  Solving for omega, Initial residual = 4.52989e-07, Final residual = 6.17884e-11, No Iterations 3
ExecutionTime = 9.72 s  ClockTime = 11 s

Time = 229

DILUPBiCGStab:  Solving for omega, Initial residual = 4.4441e-07, Final residual = 6.08049e-11, No Iterations 3
ExecutionTime = 9.75 s  ClockTime = 11 s

Time = 230

DILUPBiCGStab:  Solving for omega, Initial residual = 4.35978e-07, Final residual = 5.98319e-11, No Iterations 3
ExecutionTime = 9.78 s  ClockTime = 12 s

Time = 231

DILUPBiCGStab:  Solving for omega, Initial residual = 4.27693e-07, Final residual = 5.88694e-11, No Iterations 3
ExecutionTime = 9.81 s  ClockTime = 12 s

Time = 232

DILUPBiCGStab:  Solving for omega, Initial residual = 4.19551e-07, Final residual = 5.79172e-11, No Iterations 3
ExecutionTime = 9.84 s  ClockTime = 12 s

Time = 233

DILUPBiCGStab:  Solving for omega, Initial residual = 4.11552e-07, Final residual = 5.69754e-11, No Iterations 3
ExecutionTime = 9.88 s  ClockTime = 12 s

Time = 234

DILUPBiCGStab:  Solving for omega, Initial residual = 4.03692e-07, Final residual = 5.60446e-11, No Iterations 3
ExecutionTime = 9.92 s  ClockTime = 12 s

Time = 235

DILUPBiCGStab:  Solving for omega, Initial residual = 3.9597e-07, Final residual = 5.51242e-11, No Iterations 3
ExecutionTime = 9.97 s  ClockTime = 12 s

Time = 236

DILUPBiCGStab:  Solving for omega, Initial residual = 3.88384e-07, Final residual = 5.42145e-11, No Iterations 3
ExecutionTime = 10.01 s  ClockTime = 12 s

Time = 237

DILUPBiCGStab:  Solving for omega, Initial residual = 3.80932e-07, Final residual = 5.33154e-11, No Iterations 3
ExecutionTime = 10.04 s  ClockTime = 12 s

Time = 238

DILUPBiCGStab:  Solving for omega, Initial residual = 3.73612e-07, Final residual = 5.24272e-11, No Iterations 3
ExecutionTime = 10.08 s  ClockTime = 12 s

Time = 239

DILUPBiCGStab:  Solving for omega, Initial residual = 3.66421e-07, Final residual = 5.15496e-11, No Iterations 3
ExecutionTime = 10.11 s  ClockTime = 12 s

Time = 240

DILUPBiCGStab:  Solving for omega, Initial residual = 3.59359e-07, Final residual = 9.97652e-11, No Iterations 3
ExecutionTime = 10.15 s  ClockTime = 12 s

Time = 241

DILUPBiCGStab:  Solving for omega, Initial residual = 3.52424e-07, Final residual = 9.84116e-11, No Iterations 3
ExecutionTime = 10.18 s  ClockTime = 12 s

Time = 242

DILUPBiCGStab:  Solving for omega, Initial residual = 3.45612e-07, Final residual = 4.07829e-11, No Iterations 3
ExecutionTime = 10.21 s  ClockTime = 12 s

Time = 243

DILUPBiCGStab:  Solving for omega, Initial residual = 3.38922e-07, Final residual = 8.98933e-11, No Iterations 3
ExecutionTime = 10.24 s  ClockTime = 12 s

Time = 244

DILUPBiCGStab:  Solving for omega, Initial residual = 3.32353e-07, Final residual = 9.47919e-11, No Iterations 3
ExecutionTime = 10.27 s  ClockTime = 12 s

Time = 245

DILUPBiCGStab:  Solving for omega, Initial residual = 3.25903e-07, Final residual = 9.41392e-11, No Iterations 3
ExecutionTime = 10.31 s  ClockTime = 12 s

Time = 246

DILUPBiCGStab:  Solving for omega, Initial residual = 3.19569e-07, Final residual = 9.14148e-11, No Iterations 3
ExecutionTime = 10.34 s  ClockTime = 12 s

Time = 247

DILUPBiCGStab:  Solving for omega, Initial residual = 3.1335e-07, Final residual = 9.06346e-11, No Iterations 3
ExecutionTime = 10.37 s  ClockTime = 12 s

Time = 248

DILUPBiCGStab:  Solving for omega, Initial residual = 3.07245e-07, Final residual = 8.80038e-11, No Iterations 3
ExecutionTime = 10.4 s  ClockTime = 12 s

Time = 249

DILUPBiCGStab:  Solving for omega, Initial residual = 3.01251e-07, Final residual = 8.7349e-11, No Iterations 3
ExecutionTime = 10.43 s  ClockTime = 12 s

Time = 250

DILUPBiCGStab:  Solving for omega, Initial residual = 2.95366e-07, Final residual = 8.46633e-11, No Iterations 3
ExecutionTime = 10.46 s  ClockTime = 12 s

Time = 251

DILUPBiCGStab:  Solving for omega, Initial residual = 2.89589e-07, Final residual = 8.42103e-11, No Iterations 3
ExecutionTime = 10.5 s  ClockTime = 12 s

Time = 252

DILUPBiCGStab:  Solving for omega, Initial residual = 2.83919e-07, Final residual = 8.14095e-11, No Iterations 3
ExecutionTime = 10.53 s  ClockTime = 12 s

Time = 253

DILUPBiCGStab:  Solving for omega, Initial residual = 2.78353e-07, Final residual = 8.12024e-11, No Iterations 3
ExecutionTime = 10.56 s  ClockTime = 12 s

Time = 254

DILUPBiCGStab:  Solving for omega, Initial residual = 2.7289e-07, Final residual = 7.82409e-11, No Iterations 3
ExecutionTime = 10.6 s  ClockTime = 12 s

Time = 255

DILUPBiCGStab:  Solving for omega, Initial residual = 2.67527e-07, Final residual = 7.83174e-11, No Iterations 3
ExecutionTime = 10.63 s  ClockTime = 12 s

Time = 256

DILUPBiCGStab:  Solving for omega, Initial residual = 2.62265e-07, Final residual = 7.51362e-11, No Iterations 3
ExecutionTime = 10.66 s  ClockTime = 13 s

Time = 257

DILUPBiCGStab:  Solving for omega, Initial residual = 2.571e-07, Final residual = 7.55407e-11, No Iterations 3
ExecutionTime = 10.69 s  ClockTime = 13 s

Time = 258

DILUPBiCGStab:  Solving for omega, Initial residual = 2.52031e-07, Final residual = 7.21725e-11, No Iterations 3
ExecutionTime = 10.72 s  ClockTime = 13 s

Time = 259

DILUPBiCGStab:  Solving for omega, Initial residual = 2.47057e-07, Final residual = 7.28458e-11, No Iterations 3
ExecutionTime = 10.75 s  ClockTime = 13 s

Time = 260

DILUPBiCGStab:  Solving for omega, Initial residual = 2.42176e-07, Final residual = 6.95295e-11, No Iterations 3
ExecutionTime = 10.78 s  ClockTime = 13 s

Time = 261

DILUPBiCGStab:  Solving for omega, Initial residual = 2.37387e-07, Final residual = 7.0191e-11, No Iterations 3
ExecutionTime = 10.81 s  ClockTime = 13 s

Time = 262

DILUPBiCGStab:  Solving for omega, Initial residual = 2.32688e-07, Final residual = 6.69594e-11, No Iterations 3
ExecutionTime = 10.84 s  ClockTime = 13 s

Time = 263

DILUPBiCGStab:  Solving for omega, Initial residual = 2.28077e-07, Final residual = 6.75108e-11, No Iterations 3
ExecutionTime = 10.87 s  ClockTime = 13 s

Time = 264

DILUPBiCGStab:  Solving for omega, Initial residual = 2.23553e-07, Final residual = 6.44933e-11, No Iterations 3
ExecutionTime = 10.9 s  ClockTime = 13 s

Time = 265

DILUPBiCGStab:  Solving for omega, Initial residual = 2.19114e-07, Final residual = 6.47384e-11, No Iterations 3
ExecutionTime = 10.93 s  ClockTime = 13 s

Time = 266

DILUPBiCGStab:  Solving for omega, Initial residual = 2.1476e-07, Final residual = 6.19445e-11, No Iterations 3
ExecutionTime = 10.97 s  ClockTime = 13 s

Time = 267

DILUPBiCGStab:  Solving for omega, Initial residual = 2.10488e-07, Final residual = 6.18479e-11, No Iterations 3
ExecutionTime = 11 s  ClockTime = 13 s

Time = 268

DILUPBiCGStab:  Solving for omega, Initial residual = 2.06298e-07, Final residual = 5.92955e-11, No Iterations 3
ExecutionTime = 11.03 s  ClockTime = 13 s

Time = 269

DILUPBiCGStab:  Solving for omega, Initial residual = 2.02187e-07, Final residual = 5.88999e-11, No Iterations 3
ExecutionTime = 11.06 s  ClockTime = 13 s

Time = 270

DILUPBiCGStab:  Solving for omega, Initial residual = 1.98154e-07, Final residual = 5.66217e-11, No Iterations 3
ExecutionTime = 11.09 s  ClockTime = 13 s

Time = 271

DILUPBiCGStab:  Solving for omega, Initial residual = 1.94199e-07, Final residual = 5.60368e-11, No Iterations 3
ExecutionTime = 11.12 s  ClockTime = 13 s

Time = 272

DILUPBiCGStab:  Solving for omega, Initial residual = 1.90319e-07, Final residual = 5.40466e-11, No Iterations 3
ExecutionTime = 11.15 s  ClockTime = 13 s

Time = 273

DILUPBiCGStab:  Solving for omega, Initial residual = 1.86514e-07, Final residual = 5.33904e-11, No Iterations 3
ExecutionTime = 11.19 s  ClockTime = 13 s

Time = 274

DILUPBiCGStab:  Solving for omega, Initial residual = 1.82782e-07, Final residual = 5.16585e-11, No Iterations 3
ExecutionTime = 11.23 s  ClockTime = 13 s

Time = 275

DILUPBiCGStab:  Solving for omega, Initial residual = 1.79121e-07, Final residual = 5.10003e-11, No Iterations 3
ExecutionTime = 11.26 s  ClockTime = 13 s

Time = 276

DILUPBiCGStab:  Solving for omega, Initial residual = 1.75531e-07, Final residual = 4.94653e-11, No Iterations 3
ExecutionTime = 11.3 s  ClockTime = 13 s

Time = 277

DILUPBiCGStab:  Solving for omega, Initial residual = 1.7201e-07, Final residual = 4.8829e-11, No Iterations 3
ExecutionTime = 11.34 s  ClockTime = 13 s

Time = 278

DILUPBiCGStab:  Solving for omega, Initial residual = 1.68558e-07, Final residual = 4.74319e-11, No Iterations 3
ExecutionTime = 11.37 s  ClockTime = 13 s

Time = 279

DILUPBiCGStab:  Solving for omega, Initial residual = 1.65172e-07, Final residual = 4.68224e-11, No Iterations 3
ExecutionTime = 11.41 s  ClockTime = 13 s

Time = 280

DILUPBiCGStab:  Solving for omega, Initial residual = 1.61852e-07, Final residual = 4.55217e-11, No Iterations 3
ExecutionTime = 11.44 s  ClockTime = 13 s

Time = 281

DILUPBiCGStab:  Solving for omega, Initial residual = 1.58596e-07, Final residual = 4.49379e-11, No Iterations 3
ExecutionTime = 11.47 s  ClockTime = 13 s

Time = 282

DILUPBiCGStab:  Solving for omega, Initial residual = 1.55403e-07, Final residual = 4.37102e-11, No Iterations 3
ExecutionTime = 11.5 s  ClockTime = 13 s

Time = 283

DILUPBiCGStab:  Solving for omega, Initial residual = 1.52273e-07, Final residual = 4.3149e-11, No Iterations 3
ExecutionTime = 11.53 s  ClockTime = 14 s

Time = 284

DILUPBiCGStab:  Solving for omega, Initial residual = 1.49203e-07, Final residual = 4.19771e-11, No Iterations 3
ExecutionTime = 11.57 s  ClockTime = 14 s

Time = 285

DILUPBiCGStab:  Solving for omega, Initial residual = 1.46194e-07, Final residual = 4.14403e-11, No Iterations 3
ExecutionTime = 11.6 s  ClockTime = 14 s

Time = 286

DILUPBiCGStab:  Solving for omega, Initial residual = 1.43243e-07, Final residual = 4.03134e-11, No Iterations 3
ExecutionTime = 11.64 s  ClockTime = 14 s

Time = 287

DILUPBiCGStab:  Solving for omega, Initial residual = 1.4035e-07, Final residual = 3.98028e-11, No Iterations 3
ExecutionTime = 11.68 s  ClockTime = 14 s

Time = 288

DILUPBiCGStab:  Solving for omega, Initial residual = 1.37513e-07, Final residual = 3.87141e-11, No Iterations 3
ExecutionTime = 11.72 s  ClockTime = 14 s

Time = 289

DILUPBiCGStab:  Solving for omega, Initial residual = 1.34733e-07, Final residual = 3.8231e-11, No Iterations 3
ExecutionTime = 11.75 s  ClockTime = 14 s

Time = 290

DILUPBiCGStab:  Solving for omega, Initial residual = 1.32006e-07, Final residual = 3.71758e-11, No Iterations 3
ExecutionTime = 11.78 s  ClockTime = 14 s

Time = 291

DILUPBiCGStab:  Solving for omega, Initial residual = 1.29334e-07, Final residual = 3.67209e-11, No Iterations 3
ExecutionTime = 11.81 s  ClockTime = 14 s

Time = 292

DILUPBiCGStab:  Solving for omega, Initial residual = 1.26714e-07, Final residual = 3.5696e-11, No Iterations 3
ExecutionTime = 11.84 s  ClockTime = 14 s

Time = 293

DILUPBiCGStab:  Solving for omega, Initial residual = 1.24146e-07, Final residual = 3.52694e-11, No Iterations 3
ExecutionTime = 11.87 s  ClockTime = 14 s

Time = 294

DILUPBiCGStab:  Solving for omega, Initial residual = 1.21628e-07, Final residual = 3.42723e-11, No Iterations 3
ExecutionTime = 11.9 s  ClockTime = 14 s

Time = 295

DILUPBiCGStab:  Solving for omega, Initial residual = 1.1916e-07, Final residual = 3.38744e-11, No Iterations 3
ExecutionTime = 11.94 s  ClockTime = 14 s

Time = 296

DILUPBiCGStab:  Solving for omega, Initial residual = 1.16741e-07, Final residual = 3.29035e-11, No Iterations 3
ExecutionTime = 11.97 s  ClockTime = 14 s

Time = 297

DILUPBiCGStab:  Solving for omega, Initial residual = 1.1437e-07, Final residual = 3.25334e-11, No Iterations 3
ExecutionTime = 12 s  ClockTime = 14 s

Time = 298

DILUPBiCGStab:  Solving for omega, Initial residual = 1.12045e-07, Final residual = 3.16046e-11, No Iterations 3
ExecutionTime = 12.04 s  ClockTime = 14 s

Time = 299

DILUPBiCGStab:  Solving for omega, Initial residual = 1.09767e-07, Final residual = 3.12438e-11, No Iterations 3
ExecutionTime = 12.08 s  ClockTime = 14 s

Time = 300

DILUPBiCGStab:  Solving for omega, Initial residual = 1.07534e-07, Final residual = 3.03607e-11, No Iterations 3
ExecutionTime = 12.13 s  ClockTime = 14 s

Time = 301

DILUPBiCGStab:  Solving for omega, Initial residual = 1.05346e-07, Final residual = 3.00041e-11, No Iterations 3
ExecutionTime = 12.18 s  ClockTime = 14 s

Time = 302

DILUPBiCGStab:  Solving for omega, Initial residual = 1.03201e-07, Final residual = 2.91629e-11, No Iterations 3
ExecutionTime = 12.22 s  ClockTime = 14 s

Time = 303

DILUPBiCGStab:  Solving for omega, Initial residual = 1.01099e-07, Final residual = 2.88126e-11, No Iterations 3
ExecutionTime = 12.26 s  ClockTime = 14 s

Time = 304

DILUPBiCGStab:  Solving for omega, Initial residual = 9.90383e-08, Final residual = 2.80102e-11, No Iterations 3
ExecutionTime = 12.31 s  ClockTime = 14 s

Time = 305

DILUPBiCGStab:  Solving for omega, Initial residual = 9.70191e-08, Final residual = 2.76669e-11, No Iterations 3
ExecutionTime = 12.35 s  ClockTime = 14 s

Time = 306

DILUPBiCGStab:  Solving for omega, Initial residual = 9.50402e-08, Final residual = 9.7944e-11, No Iterations 2
ExecutionTime = 12.38 s  ClockTime = 14 s

Time = 307

DILUPBiCGStab:  Solving for omega, Initial residual = 9.31035e-08, Final residual = 3.19609e-11, No Iterations 3
ExecutionTime = 12.41 s  ClockTime = 14 s

Time = 308

DILUPBiCGStab:  Solving for omega, Initial residual = 9.1203e-08, Final residual = 9.20035e-11, No Iterations 2
ExecutionTime = 12.43 s  ClockTime = 15 s

Time = 309

DILUPBiCGStab:  Solving for omega, Initial residual = 8.93431e-08, Final residual = 3.14404e-11, No Iterations 3
ExecutionTime = 12.47 s  ClockTime = 15 s

Time = 310

DILUPBiCGStab:  Solving for omega, Initial residual = 8.75178e-08, Final residual = 8.80958e-11, No Iterations 2
ExecutionTime = 12.5 s  ClockTime = 15 s

Time = 311

DILUPBiCGStab:  Solving for omega, Initial residual = 8.57317e-08, Final residual = 3.00756e-11, No Iterations 3
ExecutionTime = 12.55 s  ClockTime = 15 s

Time = 312

DILUPBiCGStab:  Solving for omega, Initial residual = 8.39788e-08, Final residual = 8.46186e-11, No Iterations 2
ExecutionTime = 12.58 s  ClockTime = 15 s

Time = 313

DILUPBiCGStab:  Solving for omega, Initial residual = 8.22635e-08, Final residual = 2.89539e-11, No Iterations 3
ExecutionTime = 12.61 s  ClockTime = 15 s

Time = 314

DILUPBiCGStab:  Solving for omega, Initial residual = 8.05803e-08, Final residual = 8.12646e-11, No Iterations 2
ExecutionTime = 12.65 s  ClockTime = 15 s

Time = 315

DILUPBiCGStab:  Solving for omega, Initial residual = 7.89332e-08, Final residual = 2.78123e-11, No Iterations 3
ExecutionTime = 12.69 s  ClockTime = 15 s

Time = 316

DILUPBiCGStab:  Solving for omega, Initial residual = 7.7317e-08, Final residual = 7.80422e-11, No Iterations 2
ExecutionTime = 12.72 s  ClockTime = 15 s

Time = 317

DILUPBiCGStab:  Solving for omega, Initial residual = 7.57355e-08, Final residual = 2.67251e-11, No Iterations 3
ExecutionTime = 12.75 s  ClockTime = 15 s

Time = 318

DILUPBiCGStab:  Solving for omega, Initial residual = 7.41836e-08, Final residual = 7.4941e-11, No Iterations 2
ExecutionTime = 12.77 s  ClockTime = 15 s

Time = 319

DILUPBiCGStab:  Solving for omega, Initial residual = 7.26652e-08, Final residual = 2.56744e-11, No Iterations 3
ExecutionTime = 12.8 s  ClockTime = 15 s

Time = 320

DILUPBiCGStab:  Solving for omega, Initial residual = 7.11752e-08, Final residual = 7.19581e-11, No Iterations 2
ExecutionTime = 12.84 s  ClockTime = 15 s

Time = 321

DILUPBiCGStab:  Solving for omega, Initial residual = 6.97174e-08, Final residual = 2.46636e-11, No Iterations 3
ExecutionTime = 12.87 s  ClockTime = 15 s

Time = 322

DILUPBiCGStab:  Solving for omega, Initial residual = 6.8287e-08, Final residual = 6.90897e-11, No Iterations 2
ExecutionTime = 12.9 s  ClockTime = 15 s

Time = 323

DILUPBiCGStab:  Solving for omega, Initial residual = 6.68874e-08, Final residual = 2.36906e-11, No Iterations 3
ExecutionTime = 12.93 s  ClockTime = 15 s

Time = 324

DILUPBiCGStab:  Solving for omega, Initial residual = 6.55142e-08, Final residual = 6.63317e-11, No Iterations 2
ExecutionTime = 12.95 s  ClockTime = 15 s

Time = 325

DILUPBiCGStab:  Solving for omega, Initial residual = 6.41707e-08, Final residual = 2.27544e-11, No Iterations 3
ExecutionTime = 12.98 s  ClockTime = 15 s

Time = 326

DILUPBiCGStab:  Solving for omega, Initial residual = 6.28525e-08, Final residual = 6.36803e-11, No Iterations 2
ExecutionTime = 13.01 s  ClockTime = 15 s

Time = 327

DILUPBiCGStab:  Solving for omega, Initial residual = 6.15629e-08, Final residual = 2.18537e-11, No Iterations 3
ExecutionTime = 13.04 s  ClockTime = 15 s

Time = 328

DILUPBiCGStab:  Solving for omega, Initial residual = 6.02975e-08, Final residual = 6.1132e-11, No Iterations 2
ExecutionTime = 13.08 s  ClockTime = 15 s

Time = 329

DILUPBiCGStab:  Solving for omega, Initial residual = 5.90597e-08, Final residual = 9.97913e-11, No Iterations 2
ExecutionTime = 13.11 s  ClockTime = 15 s

Time = 330

DILUPBiCGStab:  Solving for omega, Initial residual = 5.78476e-08, Final residual = 9.82371e-11, No Iterations 2
ExecutionTime = 13.14 s  ClockTime = 15 s

Time = 331

DILUPBiCGStab:  Solving for omega, Initial residual = 5.666e-08, Final residual = 9.64179e-11, No Iterations 2
ExecutionTime = 13.17 s  ClockTime = 15 s

Time = 332

DILUPBiCGStab:  Solving for omega, Initial residual = 5.54965e-08, Final residual = 9.45471e-11, No Iterations 2
ExecutionTime = 13.2 s  ClockTime = 15 s

Time = 333

DILUPBiCGStab:  Solving for omega, Initial residual = 5.43565e-08, Final residual = 9.26842e-11, No Iterations 2
ExecutionTime = 13.23 s  ClockTime = 15 s

Time = 334

DILUPBiCGStab:  Solving for omega, Initial residual = 5.32397e-08, Final residual = 9.08454e-11, No Iterations 2
ExecutionTime = 13.26 s  ClockTime = 15 s

Time = 335

DILUPBiCGStab:  Solving for omega, Initial residual = 5.21455e-08, Final residual = 8.90363e-11, No Iterations 2
ExecutionTime = 13.29 s  ClockTime = 15 s

Time = 336

DILUPBiCGStab:  Solving for omega, Initial residual = 5.10735e-08, Final residual = 8.72589e-11, No Iterations 2
ExecutionTime = 13.33 s  ClockTime = 16 s

Time = 337

DILUPBiCGStab:  Solving for omega, Initial residual = 5.00233e-08, Final residual = 8.55138e-11, No Iterations 2
ExecutionTime = 13.36 s  ClockTime = 16 s

Time = 338

DILUPBiCGStab:  Solving for omega, Initial residual = 4.89945e-08, Final residual = 8.38011e-11, No Iterations 2
ExecutionTime = 13.4 s  ClockTime = 16 s

Time = 339

DILUPBiCGStab:  Solving for omega, Initial residual = 4.79865e-08, Final residual = 8.21206e-11, No Iterations 2
ExecutionTime = 13.44 s  ClockTime = 16 s

Time = 340

DILUPBiCGStab:  Solving for omega, Initial residual = 4.69991e-08, Final residual = 8.04719e-11, No Iterations 2
ExecutionTime = 13.48 s  ClockTime = 16 s

Time = 341

DILUPBiCGStab:  Solving for omega, Initial residual = 4.60318e-08, Final residual = 7.88546e-11, No Iterations 2
ExecutionTime = 13.51 s  ClockTime = 16 s

Time = 342

DILUPBiCGStab:  Solving for omega, Initial residual = 4.50842e-08, Final residual = 7.72683e-11, No Iterations 2
ExecutionTime = 13.54 s  ClockTime = 16 s

Time = 343

DILUPBiCGStab:  Solving for omega, Initial residual = 4.41559e-08, Final residual = 7.57124e-11, No Iterations 2
ExecutionTime = 13.57 s  ClockTime = 16 s

Time = 344

DILUPBiCGStab:  Solving for omega, Initial residual = 4.32465e-08, Final residual = 7.41866e-11, No Iterations 2
ExecutionTime = 13.6 s  ClockTime = 16 s

Time = 345

DILUPBiCGStab:  Solving for omega, Initial residual = 4.23557e-08, Final residual = 7.26905e-11, No Iterations 2
ExecutionTime = 13.62 s  ClockTime = 16 s

Time = 346

DILUPBiCGStab:  Solving for omega, Initial residual = 4.1483e-08, Final residual = 7.12234e-11, No Iterations 2
ExecutionTime = 13.65 s  ClockTime = 16 s

Time = 347

DILUPBiCGStab:  Solving for omega, Initial residual = 4.06282e-08, Final residual = 6.97847e-11, No Iterations 2
ExecutionTime = 13.69 s  ClockTime = 16 s

Time = 348

DILUPBiCGStab:  Solving for omega, Initial residual = 3.97908e-08, Final residual = 6.8374e-11, No Iterations 2
ExecutionTime = 13.72 s  ClockTime = 16 s

Time = 349

DILUPBiCGStab:  Solving for omega, Initial residual = 3.89706e-08, Final residual = 6.69908e-11, No Iterations 2
ExecutionTime = 13.74 s  ClockTime = 16 s

Time = 350

DILUPBiCGStab:  Solving for omega, Initial residual = 3.81671e-08, Final residual = 6.56346e-11, No Iterations 2
ExecutionTime = 13.78 s  ClockTime = 16 s

Time = 351

DILUPBiCGStab:  Solving for omega, Initial residual = 3.738e-08, Final residual = 6.43049e-11, No Iterations 2
ExecutionTime = 13.81 s  ClockTime = 16 s

Time = 352

DILUPBiCGStab:  Solving for omega, Initial residual = 3.66091e-08, Final residual = 6.30014e-11, No Iterations 2
ExecutionTime = 13.84 s  ClockTime = 16 s

Time = 353

DILUPBiCGStab:  Solving for omega, Initial residual = 3.58539e-08, Final residual = 6.17234e-11, No Iterations 2
ExecutionTime = 13.87 s  ClockTime = 16 s

Time = 354

DILUPBiCGStab:  Solving for omega, Initial residual = 3.51142e-08, Final residual = 6.04706e-11, No Iterations 2
ExecutionTime = 13.9 s  ClockTime = 16 s

Time = 355

DILUPBiCGStab:  Solving for omega, Initial residual = 3.43896e-08, Final residual = 5.92425e-11, No Iterations 2
ExecutionTime = 13.93 s  ClockTime = 16 s

Time = 356

DILUPBiCGStab:  Solving for omega, Initial residual = 3.36799e-08, Final residual = 5.80387e-11, No Iterations 2
ExecutionTime = 13.97 s  ClockTime = 16 s

Time = 357

DILUPBiCGStab:  Solving for omega, Initial residual = 3.29847e-08, Final residual = 5.68587e-11, No Iterations 2
ExecutionTime = 14 s  ClockTime = 16 s

Time = 358

DILUPBiCGStab:  Solving for omega, Initial residual = 3.23038e-08, Final residual = 5.5702e-11, No Iterations 2
ExecutionTime = 14.04 s  ClockTime = 16 s

Time = 359

DILUPBiCGStab:  Solving for omega, Initial residual = 3.16369e-08, Final residual = 5.45681e-11, No Iterations 2
ExecutionTime = 14.07 s  ClockTime = 16 s

Time = 360

DILUPBiCGStab:  Solving for omega, Initial residual = 3.09836e-08, Final residual = 5.34568e-11, No Iterations 2
ExecutionTime = 14.1 s  ClockTime = 16 s

Time = 361

DILUPBiCGStab:  Solving for omega, Initial residual = 3.03437e-08, Final residual = 5.23675e-11, No Iterations 2
ExecutionTime = 14.14 s  ClockTime = 16 s

Time = 362

DILUPBiCGStab:  Solving for omega, Initial residual = 2.9717e-08, Final residual = 5.12999e-11, No Iterations 2
ExecutionTime = 14.17 s  ClockTime = 17 s

Time = 363

DILUPBiCGStab:  Solving for omega, Initial residual = 2.91031e-08, Final residual = 5.02535e-11, No Iterations 2
ExecutionTime = 14.21 s  ClockTime = 17 s

Time = 364

DILUPBiCGStab:  Solving for omega, Initial residual = 2.85019e-08, Final residual = 4.92279e-11, No Iterations 2
ExecutionTime = 14.26 s  ClockTime = 17 s

Time = 365

DILUPBiCGStab:  Solving for omega, Initial residual = 2.7913e-08, Final residual = 4.82228e-11, No Iterations 2
ExecutionTime = 14.31 s  ClockTime = 17 s

Time = 366

DILUPBiCGStab:  Solving for omega, Initial residual = 2.73362e-08, Final residual = 4.72377e-11, No Iterations 2
ExecutionTime = 14.35 s  ClockTime = 17 s

Time = 367

DILUPBiCGStab:  Solving for omega, Initial residual = 2.67713e-08, Final residual = 4.62724e-11, No Iterations 2
ExecutionTime = 14.39 s  ClockTime = 17 s

Time = 368

DILUPBiCGStab:  Solving for omega, Initial residual = 2.62179e-08, Final residual = 4.53263e-11, No Iterations 2
ExecutionTime = 14.42 s  ClockTime = 17 s

Time = 369

DILUPBiCGStab:  Solving for omega, Initial residual = 2.5676e-08, Final residual = 4.43992e-11, No Iterations 2
ExecutionTime = 14.46 s  ClockTime = 17 s

Time = 370

DILUPBiCGStab:  Solving for omega, Initial residual = 2.51452e-08, Final residual = 4.34907e-11, No Iterations 2
ExecutionTime = 14.49 s  ClockTime = 17 s

Time = 371

DILUPBiCGStab:  Solving for omega, Initial residual = 2.46253e-08, Final residual = 4.26004e-11, No Iterations 2
ExecutionTime = 14.52 s  ClockTime = 17 s

Time = 372

DILUPBiCGStab:  Solving for omega, Initial residual = 2.41161e-08, Final residual = 4.1728e-11, No Iterations 2
ExecutionTime = 14.55 s  ClockTime = 17 s

Time = 373

DILUPBiCGStab:  Solving for omega, Initial residual = 2.36174e-08, Final residual = 4.08731e-11, No Iterations 2
ExecutionTime = 14.58 s  ClockTime = 17 s

Time = 374

DILUPBiCGStab:  Solving for omega, Initial residual = 2.3129e-08, Final residual = 4.00354e-11, No Iterations 2
ExecutionTime = 14.61 s  ClockTime = 17 s

Time = 375

DILUPBiCGStab:  Solving for omega, Initial residual = 2.26506e-08, Final residual = 3.92146e-11, No Iterations 2
ExecutionTime = 14.64 s  ClockTime = 17 s

Time = 376

DILUPBiCGStab:  Solving for omega, Initial residual = 2.21821e-08, Final residual = 9.84307e-11, No Iterations 2
ExecutionTime = 14.68 s  ClockTime = 17 s

Time = 377

DILUPBiCGStab:  Solving for omega, Initial residual = 2.1724e-08, Final residual = 9.56373e-11, No Iterations 2
ExecutionTime = 14.71 s  ClockTime = 17 s

Time = 378

DILUPBiCGStab:  Solving for omega, Initial residual = 2.12753e-08, Final residual = 9.41676e-11, No Iterations 2
ExecutionTime = 14.73 s  ClockTime = 17 s

Time = 379

DILUPBiCGStab:  Solving for omega, Initial residual = 2.08357e-08, Final residual = 9.19012e-11, No Iterations 2
ExecutionTime = 14.76 s  ClockTime = 17 s

Time = 380

DILUPBiCGStab:  Solving for omega, Initial residual = 2.04052e-08, Final residual = 9.0266e-11, No Iterations 2
ExecutionTime = 14.8 s  ClockTime = 17 s

Time = 381

DILUPBiCGStab:  Solving for omega, Initial residual = 1.99835e-08, Final residual = 8.82453e-11, No Iterations 2
ExecutionTime = 14.82 s  ClockTime = 17 s

Time = 382

DILUPBiCGStab:  Solving for omega, Initial residual = 1.95705e-08, Final residual = 8.65585e-11, No Iterations 2
ExecutionTime = 14.85 s  ClockTime = 17 s

Time = 383

DILUPBiCGStab:  Solving for omega, Initial residual = 1.9166e-08, Final residual = 8.47061e-11, No Iterations 2
ExecutionTime = 14.88 s  ClockTime = 17 s

Time = 384

DILUPBiCGStab:  Solving for omega, Initial residual = 1.87697e-08, Final residual = 8.30549e-11, No Iterations 2
ExecutionTime = 14.91 s  ClockTime = 17 s

Time = 385

DILUPBiCGStab:  Solving for omega, Initial residual = 1.83817e-08, Final residual = 8.12949e-11, No Iterations 2
ExecutionTime = 14.93 s  ClockTime = 17 s

Time = 386

DILUPBiCGStab:  Solving for omega, Initial residual = 1.80016e-08, Final residual = 7.9687e-11, No Iterations 2
ExecutionTime = 14.97 s  ClockTime = 17 s

Time = 387

DILUPBiCGStab:  Solving for omega, Initial residual = 1.76293e-08, Final residual = 7.80132e-11, No Iterations 2
ExecutionTime = 14.99 s  ClockTime = 17 s

Time = 388

DILUPBiCGStab:  Solving for omega, Initial residual = 1.72648e-08, Final residual = 7.64545e-11, No Iterations 2
ExecutionTime = 15.02 s  ClockTime = 17 s

Time = 389

DILUPBiCGStab:  Solving for omega, Initial residual = 1.69077e-08, Final residual = 7.48598e-11, No Iterations 2
ExecutionTime = 15.06 s  ClockTime = 18 s

Time = 390

DILUPBiCGStab:  Solving for omega, Initial residual = 1.6558e-08, Final residual = 7.33531e-11, No Iterations 2
ExecutionTime = 15.09 s  ClockTime = 18 s

Time = 391

DILUPBiCGStab:  Solving for omega, Initial residual = 1.62154e-08, Final residual = 7.18339e-11, No Iterations 2
ExecutionTime = 15.12 s  ClockTime = 18 s

Time = 392

DILUPBiCGStab:  Solving for omega, Initial residual = 1.588e-08, Final residual = 7.03771e-11, No Iterations 2
ExecutionTime = 15.16 s  ClockTime = 18 s

Time = 393

DILUPBiCGStab:  Solving for omega, Initial residual = 1.55514e-08, Final residual = 6.89265e-11, No Iterations 2
ExecutionTime = 15.19 s  ClockTime = 18 s

Time = 394

DILUPBiCGStab:  Solving for omega, Initial residual = 1.52297e-08, Final residual = 6.75217e-11, No Iterations 2
ExecutionTime = 15.23 s  ClockTime = 18 s

Time = 395

DILUPBiCGStab:  Solving for omega, Initial residual = 1.49145e-08, Final residual = 6.61336e-11, No Iterations 2
ExecutionTime = 15.28 s  ClockTime = 18 s

Time = 396

DILUPBiCGStab:  Solving for omega, Initial residual = 1.46059e-08, Final residual = 6.47832e-11, No Iterations 2
ExecutionTime = 15.32 s  ClockTime = 18 s

Time = 397

DILUPBiCGStab:  Solving for omega, Initial residual = 1.43036e-08, Final residual = 6.34514e-11, No Iterations 2
ExecutionTime = 15.36 s  ClockTime = 18 s

Time = 398

DILUPBiCGStab:  Solving for omega, Initial residual = 1.40076e-08, Final residual = 6.21537e-11, No Iterations 2
ExecutionTime = 15.39 s  ClockTime = 18 s

Time = 399

DILUPBiCGStab:  Solving for omega, Initial residual = 1.37177e-08, Final residual = 6.08759e-11, No Iterations 2
ExecutionTime = 15.44 s  ClockTime = 18 s

Time = 400

DILUPBiCGStab:  Solving for omega, Initial residual = 1.34338e-08, Final residual = 5.96292e-11, No Iterations 2
ExecutionTime = 15.48 s  ClockTime = 18 s

Time = 401

DILUPBiCGStab:  Solving for omega, Initial residual = 1.31557e-08, Final residual = 5.8403e-11, No Iterations 2
ExecutionTime = 15.51 s  ClockTime = 18 s

Time = 402

DILUPBiCGStab:  Solving for omega, Initial residual = 1.28834e-08, Final residual = 5.72056e-11, No Iterations 2
ExecutionTime = 15.53 s  ClockTime = 18 s

Time = 403

DILUPBiCGStab:  Solving for omega, Initial residual = 1.26167e-08, Final residual = 5.6029e-11, No Iterations 2
ExecutionTime = 15.56 s  ClockTime = 18 s

Time = 404

DILUPBiCGStab:  Solving for omega, Initial residual = 1.23555e-08, Final residual = 5.48791e-11, No Iterations 2
ExecutionTime = 15.6 s  ClockTime = 18 s

Time = 405

DILUPBiCGStab:  Solving for omega, Initial residual = 1.20997e-08, Final residual = 5.37501e-11, No Iterations 2
ExecutionTime = 15.63 s  ClockTime = 18 s

Time = 406

DILUPBiCGStab:  Solving for omega, Initial residual = 1.18491e-08, Final residual = 5.26461e-11, No Iterations 2
ExecutionTime = 15.66 s  ClockTime = 18 s

Time = 407

DILUPBiCGStab:  Solving for omega, Initial residual = 1.16038e-08, Final residual = 5.15627e-11, No Iterations 2
ExecutionTime = 15.69 s  ClockTime = 18 s

Time = 408

DILUPBiCGStab:  Solving for omega, Initial residual = 1.13635e-08, Final residual = 5.05027e-11, No Iterations 2
ExecutionTime = 15.71 s  ClockTime = 18 s

Time = 409

DILUPBiCGStab:  Solving for omega, Initial residual = 1.11282e-08, Final residual = 4.94631e-11, No Iterations 2
ExecutionTime = 15.74 s  ClockTime = 18 s

Time = 410

DILUPBiCGStab:  Solving for omega, Initial residual = 1.08978e-08, Final residual = 4.84457e-11, No Iterations 2
ExecutionTime = 15.78 s  ClockTime = 18 s

Time = 411

DILUPBiCGStab:  Solving for omega, Initial residual = 1.06721e-08, Final residual = 4.74481e-11, No Iterations 2
ExecutionTime = 15.81 s  ClockTime = 18 s

Time = 412

DILUPBiCGStab:  Solving for omega, Initial residual = 1.04511e-08, Final residual = 4.64716e-11, No Iterations 2
ExecutionTime = 15.84 s  ClockTime = 18 s

Time = 413

DILUPBiCGStab:  Solving for omega, Initial residual = 1.02347e-08, Final residual = 4.55143e-11, No Iterations 2
ExecutionTime = 15.86 s  ClockTime = 18 s

Time = 414

DILUPBiCGStab:  Solving for omega, Initial residual = 1.00227e-08, Final residual = 4.45771e-11, No Iterations 2
ExecutionTime = 15.88 s  ClockTime = 18 s

Time = 415

DILUPBiCGStab:  Solving for omega, Initial residual = 9.81511e-09, Final residual = 4.36586e-11, No Iterations 2
ExecutionTime = 15.9 s  ClockTime = 19 s

Time = 416

DILUPBiCGStab:  Solving for omega, Initial residual = 9.61182e-09, Final residual = 4.27591e-11, No Iterations 2
ExecutionTime = 15.92 s  ClockTime = 19 s

Time = 417

DILUPBiCGStab:  Solving for omega, Initial residual = 9.41273e-09, Final residual = 4.18778e-11, No Iterations 2
ExecutionTime = 15.95 s  ClockTime = 19 s

Time = 418

DILUPBiCGStab:  Solving for omega, Initial residual = 9.21776e-09, Final residual = 4.10147e-11, No Iterations 2
ExecutionTime = 15.99 s  ClockTime = 19 s

Time = 419

DILUPBiCGStab:  Solving for omega, Initial residual = 9.02683e-09, Final residual = 4.0169e-11, No Iterations 2
ExecutionTime = 16.02 s  ClockTime = 19 s

Time = 420

DILUPBiCGStab:  Solving for omega, Initial residual = 8.83984e-09, Final residual = 3.93408e-11, No Iterations 2
ExecutionTime = 16.04 s  ClockTime = 19 s

Time = 421

DILUPBiCGStab:  Solving for omega, Initial residual = 8.65673e-09, Final residual = 3.85295e-11, No Iterations 2
ExecutionTime = 16.07 s  ClockTime = 19 s

Time = 422

DILUPBiCGStab:  Solving for omega, Initial residual = 8.4774e-09, Final residual = 3.77348e-11, No Iterations 2
ExecutionTime = 16.1 s  ClockTime = 19 s

Time = 423

DILUPBiCGStab:  Solving for omega, Initial residual = 8.30179e-09, Final residual = 3.69563e-11, No Iterations 2
ExecutionTime = 16.14 s  ClockTime = 19 s

Time = 424

DILUPBiCGStab:  Solving for omega, Initial residual = 8.1298e-09, Final residual = 3.61939e-11, No Iterations 2
ExecutionTime = 16.16 s  ClockTime = 19 s

Time = 425

DILUPBiCGStab:  Solving for omega, Initial residual = 7.96138e-09, Final residual = 3.5447e-11, No Iterations 2
ExecutionTime = 16.19 s  ClockTime = 19 s

Time = 426

DILUPBiCGStab:  Solving for omega, Initial residual = 7.79644e-09, Final residual = 3.47154e-11, No Iterations 2
ExecutionTime = 16.22 s  ClockTime = 19 s

Time = 427

DILUPBiCGStab:  Solving for omega, Initial residual = 7.63492e-09, Final residual = 3.39989e-11, No Iterations 2
ExecutionTime = 16.24 s  ClockTime = 19 s

Time = 428

DILUPBiCGStab:  Solving for omega, Initial residual = 7.47674e-09, Final residual = 3.32971e-11, No Iterations 2
ExecutionTime = 16.26 s  ClockTime = 19 s

Time = 429

DILUPBiCGStab:  Solving for omega, Initial residual = 7.32184e-09, Final residual = 3.26096e-11, No Iterations 2
ExecutionTime = 16.29 s  ClockTime = 19 s

Time = 430

DILUPBiCGStab:  Solving for omega, Initial residual = 7.17014e-09, Final residual = 3.19363e-11, No Iterations 2
ExecutionTime = 16.31 s  ClockTime = 19 s

Time = 431

DILUPBiCGStab:  Solving for omega, Initial residual = 7.02158e-09, Final residual = 3.12769e-11, No Iterations 2
ExecutionTime = 16.33 s  ClockTime = 19 s

Time = 432

DILUPBiCGStab:  Solving for omega, Initial residual = 6.8761e-09, Final residual = 3.06309e-11, No Iterations 2
ExecutionTime = 16.36 s  ClockTime = 19 s

Time = 433

DILUPBiCGStab:  Solving for omega, Initial residual = 6.73363e-09, Final residual = 2.99983e-11, No Iterations 2
ExecutionTime = 16.38 s  ClockTime = 19 s

Time = 434

DILUPBiCGStab:  Solving for omega, Initial residual = 6.59411e-09, Final residual = 2.93786e-11, No Iterations 2
ExecutionTime = 16.41 s  ClockTime = 19 s

Time = 435

DILUPBiCGStab:  Solving for omega, Initial residual = 6.45748e-09, Final residual = 2.87717e-11, No Iterations 2
ExecutionTime = 16.44 s  ClockTime = 19 s

Time = 436

DILUPBiCGStab:  Solving for omega, Initial residual = 6.32367e-09, Final residual = 2.81773e-11, No Iterations 2
ExecutionTime = 16.46 s  ClockTime = 19 s

Time = 437

DILUPBiCGStab:  Solving for omega, Initial residual = 6.19264e-09, Final residual = 2.75951e-11, No Iterations 2
ExecutionTime = 16.48 s  ClockTime = 19 s

Time = 438

DILUPBiCGStab:  Solving for omega, Initial residual = 6.06433e-09, Final residual = 2.70249e-11, No Iterations 2
ExecutionTime = 16.51 s  ClockTime = 19 s

Time = 439

DILUPBiCGStab:  Solving for omega, Initial residual = 5.93867e-09, Final residual = 2.64664e-11, No Iterations 2
ExecutionTime = 16.55 s  ClockTime = 19 s

Time = 440

DILUPBiCGStab:  Solving for omega, Initial residual = 5.81561e-09, Final residual = 2.59194e-11, No Iterations 2
ExecutionTime = 16.57 s  ClockTime = 19 s

Time = 441

DILUPBiCGStab:  Solving for omega, Initial residual = 5.6951e-09, Final residual = 2.53837e-11, No Iterations 2
ExecutionTime = 16.6 s  ClockTime = 19 s

Time = 442

DILUPBiCGStab:  Solving for omega, Initial residual = 5.57709e-09, Final residual = 2.4859e-11, No Iterations 2
ExecutionTime = 16.62 s  ClockTime = 20 s

Time = 443

DILUPBiCGStab:  Solving for omega, Initial residual = 5.46152e-09, Final residual = 2.43451e-11, No Iterations 2
ExecutionTime = 16.64 s  ClockTime = 20 s

Time = 444

DILUPBiCGStab:  Solving for omega, Initial residual = 5.34835e-09, Final residual = 2.38419e-11, No Iterations 2
ExecutionTime = 16.67 s  ClockTime = 20 s

Time = 445

DILUPBiCGStab:  Solving for omega, Initial residual = 5.23752e-09, Final residual = 2.33489e-11, No Iterations 2
ExecutionTime = 16.71 s  ClockTime = 20 s

Time = 446

DILUPBiCGStab:  Solving for omega, Initial residual = 5.12898e-09, Final residual = 2.28662e-11, No Iterations 2
ExecutionTime = 16.75 s  ClockTime = 20 s

Time = 447

DILUPBiCGStab:  Solving for omega, Initial residual = 5.0227e-09, Final residual = 2.23934e-11, No Iterations 2
ExecutionTime = 16.78 s  ClockTime = 20 s

Time = 448

DILUPBiCGStab:  Solving for omega, Initial residual = 4.91862e-09, Final residual = 2.19304e-11, No Iterations 2
ExecutionTime = 16.82 s  ClockTime = 20 s

Time = 449

DILUPBiCGStab:  Solving for omega, Initial residual = 4.81669e-09, Final residual = 2.14769e-11, No Iterations 2
ExecutionTime = 16.85 s  ClockTime = 20 s

Time = 450

DILUPBiCGStab:  Solving for omega, Initial residual = 4.71687e-09, Final residual = 2.10328e-11, No Iterations 2
ExecutionTime = 16.87 s  ClockTime = 20 s

Time = 451

DILUPBiCGStab:  Solving for omega, Initial residual = 4.61913e-09, Final residual = 2.05978e-11, No Iterations 2
ExecutionTime = 16.89 s  ClockTime = 20 s

Time = 452

DILUPBiCGStab:  Solving for omega, Initial residual = 4.5234e-09, Final residual = 2.01718e-11, No Iterations 2
ExecutionTime = 16.92 s  ClockTime = 20 s

Time = 453

DILUPBiCGStab:  Solving for omega, Initial residual = 4.42967e-09, Final residual = 9.89278e-11, No Iterations 1
ExecutionTime = 16.94 s  ClockTime = 20 s

Time = 454

DILUPBiCGStab:  Solving for omega, Initial residual = 4.33978e-09, Final residual = 9.73955e-11, No Iterations 1
ExecutionTime = 16.96 s  ClockTime = 20 s

Time = 455

DILUPBiCGStab:  Solving for omega, Initial residual = 4.25173e-09, Final residual = 9.56401e-11, No Iterations 1
ExecutionTime = 17 s  ClockTime = 20 s

Time = 456

DILUPBiCGStab:  Solving for omega, Initial residual = 4.16548e-09, Final residual = 9.38429e-11, No Iterations 1
ExecutionTime = 17.03 s  ClockTime = 20 s

Time = 457

DILUPBiCGStab:  Solving for omega, Initial residual = 4.08099e-09, Final residual = 9.20975e-11, No Iterations 1
ExecutionTime = 17.05 s  ClockTime = 20 s

Time = 458

DILUPBiCGStab:  Solving for omega, Initial residual = 3.99824e-09, Final residual = 9.04001e-11, No Iterations 1
ExecutionTime = 17.09 s  ClockTime = 20 s

Time = 459

DILUPBiCGStab:  Solving for omega, Initial residual = 3.91718e-09, Final residual = 8.87402e-11, No Iterations 1
ExecutionTime = 17.11 s  ClockTime = 20 s

Time = 460

DILUPBiCGStab:  Solving for omega, Initial residual = 3.83777e-09, Final residual = 8.71145e-11, No Iterations 1
ExecutionTime = 17.15 s  ClockTime = 20 s

Time = 461

DILUPBiCGStab:  Solving for omega, Initial residual = 3.75998e-09, Final residual = 8.55222e-11, No Iterations 1
ExecutionTime = 17.18 s  ClockTime = 20 s

Time = 462

DILUPBiCGStab:  Solving for omega, Initial residual = 3.68377e-09, Final residual = 8.39563e-11, No Iterations 1
ExecutionTime = 17.2 s  ClockTime = 20 s

Time = 463

DILUPBiCGStab:  Solving for omega, Initial residual = 3.6091e-09, Final residual = 8.24127e-11, No Iterations 1
ExecutionTime = 17.23 s  ClockTime = 20 s

Time = 464

DILUPBiCGStab:  Solving for omega, Initial residual = 3.53595e-09, Final residual = 8.08901e-11, No Iterations 1
ExecutionTime = 17.25 s  ClockTime = 20 s

Time = 465

[...]

Time = 5885

DILUPBiCGStab:  Solving for omega, Initial residual = 9.95946e-11, Final residual = 9.95946e-11, No Iterations 0
ExecutionTime = 169.11 s  ClockTime = 201 s

Time = 5886

DILUPBiCGStab:  Solving for omega, Initial residual = 9.95946e-11, Final residual = 9.95946e-11, No Iterations 0
ExecutionTime = 169.14 s  ClockTime = 202 s

Time = 5887

DILUPBiCGStab:  Solving for omega, Initial residual = 9.95946e-11, Final residual = 9.95946e-11, No Iterations 0
ExecutionTime = 169.17 s  ClockTime = 202 s

Time = 5888

DILUPBiCGStab:  Solving for omega, Initial residual = 9.95946e-11, Final residual = 9.95946e-11, No Iterations 0
ExecutionTime = 169.2 s  ClockTime = 202 s

Time = 5889

DILUPBiCGStab:  Solving for omega, Initial residual = 9.95946e-11, Final residual = 9.95946e-11, No Iterations 0
ExecutionTime = 169.23 s  ClockTime = 202 s

Time = 5890

DILUPBiCGStab:  Solving for omega, Initial residual = 9.95946e-11, Final residual = 9.95946e-11, No Iterations 0
ExecutionTime = 169.26 s  ClockTime = 202 s

Time = 5891

DILUPBiCGStab:  Solving for omega, Initial residual = 9.95946e-11, Final residual = 9.95946e-11, No Iterations 0
ExecutionTime = 169.3 s  ClockTime = 202 s

Time = 5892

DILUPBiCGStab:  Solving for omega, Initial residual = 9.95946e-11, Final residual = 9.95946e-11, No Iterations 0
ExecutionTime = 169.33 s  ClockTime = 202 s

Time = 5893

DILUPBiCGStab:  Solving for omega, Initial residual = 9.95946e-11, Final residual = 9.95946e-11, No Iterations 0
ExecutionTime = 169.36 s  ClockTime = 202 s

Time = 5894

DILUPBiCGStab:  Solving for omega, Initial residual = 9.95946e-11, Final residual = 9.95946e-11, No Iterations 0
ExecutionTime = 169.39 s  ClockTime = 202 s

Time = 5895

DILUPBiCGStab:  Solving for omega, Initial residual = 9.95946e-11, Final residual = 9.95946e-11, No Iterations 0
ExecutionTime = 169.42 s  ClockTime = 202 s

Time = 5896

DILUPBiCGStab:  Solving for omega, Initial residual = 9.95946e-11, Final residual = 9.95946e-11, No Iterations 0
ExecutionTime = 169.45 s  ClockTime = 202 s

Time = 5897

DILUPBiCGStab:  Solving for omega, Initial residual = 9.95946e-11, Final residual = 9.95946e-11, No Iterations 0
ExecutionTime = 169.47 s  ClockTime = 202 s

Time = 5898

DILUPBiCGStab:  Solving for omega, Initial residual = 9.95946e-11, Final residual = 9.95946e-11, No Iterations 0
ExecutionTime = 169.5 s  ClockTime = 202 s

Time = 5899

DILUPBiCGStab:  Solving for omega, Initial residual = 9.95946e-11, Final residual = 9.95946e-11, No Iterations 0
ExecutionTime = 169.53 s  ClockTime = 202 s

Time = 5900

DILUPBiCGStab:  Solving for omega, Initial residual = 9.95946e-11, Final residual = 9.95946e-11, No Iterations 0
ExecutionTime = 169.56 s  ClockTime = 202 s

Time = 5901

DILUPBiCGStab:  Solving for omega, Initial residual = 9.95946e-11, Final residual = 9.95946e-11, No Iterations 0
ExecutionTime = 169.59 s  ClockTime = 202 s

Time = 5902

DILUPBiCGStab:  Solving for omega, Initial residual = 9.95946e-11, Final residual = 9.95946e-11, No Iterations 0
ExecutionTime = 169.62 s  ClockTime = 202 s

Time = 5903

DILUPBiCGStab:  Solving for omega, Initial residual = 9.95946e-11, Final residual = 9.95946e-11, No Iterations 0
ExecutionTime = 169.64 s  ClockTime = 202 s

Time = 5904

DILUPBiCGStab:  Solving for omega, Initial residual = 9.95946e-11, Final residual = 9.95946e-11, No Iterations 0
ExecutionTime = 169.67 s  ClockTime = 202 s

Time = 5905

DILUPBiCGStab:  Solving for omega, Initial residual = 9.95946e-11, Final residual = 9.95946e-11, No Iterations 0
ExecutionTime = 169.7 s  ClockTime = 202 s

Time = 5906

DILUPBiCGStab:  Solving for omega, Initial residual = 9.95946e-11, Final residual = 9.95946e-11, No Iterations 0
ExecutionTime = 169.72 s  ClockTime = 202 s

Time = 5907

DILUPBiCGStab:  Solving for omega, Initial residual = 9.95946e-11, Final residual = 9.95946e-11, No Iterations 0
ExecutionTime = 169.75 s  ClockTime = 202 s

Time = 5908

DILUPBiCGStab:  Solving for omega, Initial residual = 9.95946e-11, Final residual = 9.95946e-11, No Iterations 0
ExecutionTime = 169.78 s  ClockTime = 202 s

Time = 5909

DILUPBiCGStab:  Solving for omega, Initial residual = 9.95946e-11, Final residual = 9.95946e-11, No Iterations 0
ExecutionTime = 169.81 s  ClockTime = 202 s

Time = 5910

DILUPBiCGStab:  Solving for omega, Initial residual = 9.95946e-11, Final residual = 9.95946e-11, No Iterations 0
ExecutionTime = 169.83 s  ClockTime = 202 s

Time = 5911

DILUPBiCGStab:  Solving for omega, Initial residual = 9.95946e-11, Final residual = 9.95946e-11, No Iterations 0
ExecutionTime = 169.86 s  ClockTime = 202 s

Time = 5912

DILUPBiCGStab:  Solving for omega, Initial residual = 9.95946e-11, Final residual = 9.95946e-11, No Iterations 0
ExecutionTime = 169.89 s  ClockTime = 202 s

Time = 5913

DILUPBiCGStab:  Solving for omega, Initial residual = 9.95946e-11, Final residual = 9.95946e-11, No Iterations 0
ExecutionTime = 169.91 s  ClockTime = 202 s

Time = 5914

DILUPBiCGStab:  Solving for omega, Initial residual = 9.95946e-11, Final residual = 9.95946e-11, No Iterations 0
ExecutionTime = 169.94 s  ClockTime = 202 s

Time = 5915

DILUPBiCGStab:  Solving for omega, Initial residual = 9.95946e-11, Final residual = 9.95946e-11, No Iterations 0
ExecutionTime = 169.97 s  ClockTime = 202 s

Time = 5916

DILUPBiCGStab:  Solving for omega, Initial residual = 9.95946e-11, Final residual = 9.95946e-11, No Iterations 0
ExecutionTime = 169.99 s  ClockTime = 202 s

Time = 5917

DILUPBiCGStab:  Solving for omega, Initial residual = 9.95946e-11, Final residual = 9.95946e-11, No Iterations 0
ExecutionTime = 170.02 s  ClockTime = 202 s

Time = 5918

DILUPBiCGStab:  Solving for omega, Initial residual = 9.95946e-11, Final residual = 9.95946e-11, No Iterations 0
ExecutionTime = 170.05 s  ClockTime = 203 s

Time = 5919

DILUPBiCGStab:  Solving for omega, Initial residual = 9.95946e-11, Final residual = 9.95946e-11, No Iterations 0
ExecutionTime = 170.08 s  ClockTime = 203 s

Time = 5920

DILUPBiCGStab:  Solving for omega, Initial residual = 9.95946e-11, Final residual = 9.95946e-11, No Iterations 0
ExecutionTime = 170.11 s  ClockTime = 203 s

Time = 5921

DILUPBiCGStab:  Solving for omega, Initial residual = 9.95946e-11, Final residual = 9.95946e-11, No Iterations 0
ExecutionTime = 170.13 s  ClockTime = 203 s

Time = 5922

DILUPBiCGStab:  Solving for omega, Initial residual = 9.95946e-11, Final residual = 9.95946e-11, No Iterations 0
ExecutionTime = 170.16 s  ClockTime = 203 s

Time = 5923

DILUPBiCGStab:  Solving for omega, Initial residual = 9.95946e-11, Final residual = 9.95946e-11, No Iterations 0
ExecutionTime = 170.2 s  ClockTime = 203 s

Time = 5924

DILUPBiCGStab:  Solving for omega, Initial residual = 9.95946e-11, Final residual = 9.95946e-11, No Iterations 0
ExecutionTime = 170.23 s  ClockTime = 203 s

Time = 5925

DILUPBiCGStab:  Solving for omega, Initial residual = 9.95946e-11, Final residual = 9.95946e-11, No Iterations 0
ExecutionTime = 170.25 s  ClockTime = 203 s

Time = 5926

DILUPBiCGStab:  Solving for omega, Initial residual = 9.95946e-11, Final residual = 9.95946e-11, No Iterations 0
ExecutionTime = 170.27 s  ClockTime = 203 s

Time = 5927

DILUPBiCGStab:  Solving for omega, Initial residual = 9.95946e-11, Final residual = 9.95946e-11, No Iterations 0
ExecutionTime = 170.3 s  ClockTime = 203 s

Time = 5928

DILUPBiCGStab:  Solving for omega, Initial residual = 9.95946e-11, Final residual = 9.95946e-11, No Iterations 0
ExecutionTime = 170.33 s  ClockTime = 203 s

Time = 5929

DILUPBiCGStab:  Solving for omega, Initial residual = 9.95946e-11, Final residual = 9.95946e-11, No Iterations 0
ExecutionTime = 170.35 s  ClockTime = 203 s

Time = 5930

DILUPBiCGStab:  Solving for omega, Initial residual = 9.95946e-11, Final residual = 9.95946e-11, No Iterations 0
ExecutionTime = 170.38 s  ClockTime = 203 s

Time = 5931

DILUPBiCGStab:  Solving for omega, Initial residual = 9.95946e-11, Final residual = 9.95946e-11, No Iterations 0
ExecutionTime = 170.41 s  ClockTime = 203 s

Time = 5932

DILUPBiCGStab:  Solving for omega, Initial residual = 9.95946e-11, Final residual = 9.95946e-11, No Iterations 0
ExecutionTime = 170.43 s  ClockTime = 203 s

Time = 5933

DILUPBiCGStab:  Solving for omega, Initial residual = 9.95946e-11, Final residual = 9.95946e-11, No Iterations 0
ExecutionTime = 170.46 s  ClockTime = 203 s

Time = 5934

DILUPBiCGStab:  Solving for omega, Initial residual = 9.95946e-11, Final residual = 9.95946e-11, No Iterations 0
ExecutionTime = 170.5 s  ClockTime = 203 s

Time = 5935

DILUPBiCGStab:  Solving for omega, Initial residual = 9.95946e-11, Final residual = 9.95946e-11, No Iterations 0
ExecutionTime = 170.52 s  ClockTime = 203 s

Time = 5936

DILUPBiCGStab:  Solving for omega, Initial residual = 9.95946e-11, Final residual = 9.95946e-11, No Iterations 0
ExecutionTime = 170.55 s  ClockTime = 203 s

Time = 5937

DILUPBiCGStab:  Solving for omega, Initial residual = 9.95946e-11, Final residual = 9.95946e-11, No Iterations 0
ExecutionTime = 170.58 s  ClockTime = 203 s

Time = 5938

DILUPBiCGStab:  Solving for omega, Initial residual = 9.95946e-11, Final residual = 9.95946e-11, No Iterations 0
ExecutionTime = 170.61 s  ClockTime = 203 s

Time = 5939

DILUPBiCGStab:  Solving for omega, Initial residual = 9.95946e-11, Final residual = 9.95946e-11, No Iterations 0
ExecutionTime = 170.65 s  ClockTime = 203 s

Time = 5940

DILUPBiCGStab:  Solving for omega, Initial residual = 9.95946e-11, Final residual = 9.95946e-11, No Iterations 0
ExecutionTime = 170.68 s  ClockTime = 203 s

Time = 5941

DILUPBiCGStab:  Solving for omega, Initial residual = 9.95946e-11, Final residual = 9.95946e-11, No Iterations 0
ExecutionTime = 170.71 s  ClockTime = 203 s

Time = 5942

DILUPBiCGStab:  Solving for omega, Initial residual = 9.95946e-11, Final residual = 9.95946e-11, No Iterations 0
ExecutionTime = 170.74 s  ClockTime = 203 s

Time = 5943

DILUPBiCGStab:  Solving for omega, Initial residual = 9.95946e-11, Final residual = 9.95946e-11, No Iterations 0
ExecutionTime = 170.76 s  ClockTime = 203 s

Time = 5944

DILUPBiCGStab:  Solving for omega, Initial residual = 9.95946e-11, Final residual = 9.95946e-11, No Iterations 0
ExecutionTime = 170.79 s  ClockTime = 203 s

Time = 5945

DILUPBiCGStab:  Solving for omega, Initial residual = 9.95946e-11, Final residual = 9.95946e-11, No Iterations 0
ExecutionTime = 170.82 s  ClockTime = 203 s

Time = 5946

DILUPBiCGStab:  Solving for omega, Initial residual = 9.95946e-11, Final residual = 9.95946e-11, No Iterations 0
ExecutionTime = 170.85 s  ClockTime = 203 s

Time = 5947

DILUPBiCGStab:  Solving for omega, Initial residual = 9.95946e-11, Final residual = 9.95946e-11, No Iterations 0
ExecutionTime = 170.88 s  ClockTime = 203 s

Time = 5948

DILUPBiCGStab:  Solving for omega, Initial residual = 9.95946e-11, Final residual = 9.95946e-11, No Iterations 0
ExecutionTime = 170.91 s  ClockTime = 203 s

Time = 5949

DILUPBiCGStab:  Solving for omega, Initial residual = 9.95946e-11, Final residual = 9.95946e-11, No Iterations 0
ExecutionTime = 170.93 s  ClockTime = 203 s

Time = 5950

DILUPBiCGStab:  Solving for omega, Initial residual = 9.95946e-11, Final residual = 9.95946e-11, No Iterations 0
ExecutionTime = 170.96 s  ClockTime = 204 s

Time = 5951

DILUPBiCGStab:  Solving for omega, Initial residual = 9.95946e-11, Final residual = 9.95946e-11, No Iterations 0
ExecutionTime = 170.98 s  ClockTime = 204 s

Time = 5952

DILUPBiCGStab:  Solving for omega, Initial residual = 9.95946e-11, Final residual = 9.95946e-11, No Iterations 0
ExecutionTime = 171.01 s  ClockTime = 204 s

Time = 5953

DILUPBiCGStab:  Solving for omega, Initial residual = 9.95946e-11, Final residual = 9.95946e-11, No Iterations 0
ExecutionTime = 171.04 s  ClockTime = 204 s

Time = 5954

DILUPBiCGStab:  Solving for omega, Initial residual = 9.95946e-11, Final residual = 9.95946e-11, No Iterations 0
ExecutionTime = 171.07 s  ClockTime = 204 s

Time = 5955

DILUPBiCGStab:  Solving for omega, Initial residual = 9.95946e-11, Final residual = 9.95946e-11, No Iterations 0
ExecutionTime = 171.1 s  ClockTime = 204 s

Time = 5956

DILUPBiCGStab:  Solving for omega, Initial residual = 9.95946e-11, Final residual = 9.95946e-11, No Iterations 0
ExecutionTime = 171.14 s  ClockTime = 204 s

Time = 5957

DILUPBiCGStab:  Solving for omega, Initial residual = 9.95946e-11, Final residual = 9.95946e-11, No Iterations 0
ExecutionTime = 171.17 s  ClockTime = 204 s

Time = 5958

DILUPBiCGStab:  Solving for omega, Initial residual = 9.95946e-11, Final residual = 9.95946e-11, No Iterations 0
ExecutionTime = 171.2 s  ClockTime = 204 s

Time = 5959

DILUPBiCGStab:  Solving for omega, Initial residual = 9.95946e-11, Final residual = 9.95946e-11, No Iterations 0
ExecutionTime = 171.23 s  ClockTime = 204 s

Time = 5960

DILUPBiCGStab:  Solving for omega, Initial residual = 9.95946e-11, Final residual = 9.95946e-11, No Iterations 0
ExecutionTime = 171.26 s  ClockTime = 204 s

Time = 5961

DILUPBiCGStab:  Solving for omega, Initial residual = 9.95946e-11, Final residual = 9.95946e-11, No Iterations 0
ExecutionTime = 171.28 s  ClockTime = 204 s

Time = 5962

DILUPBiCGStab:  Solving for omega, Initial residual = 9.95946e-11, Final residual = 9.95946e-11, No Iterations 0
ExecutionTime = 171.31 s  ClockTime = 204 s

Time = 5963

DILUPBiCGStab:  Solving for omega, Initial residual = 9.95946e-11, Final residual = 9.95946e-11, No Iterations 0
ExecutionTime = 171.33 s  ClockTime = 204 s

Time = 5964

DILUPBiCGStab:  Solving for omega, Initial residual = 9.95946e-11, Final residual = 9.95946e-11, No Iterations 0
ExecutionTime = 171.36 s  ClockTime = 204 s

Time = 5965

DILUPBiCGStab:  Solving for omega, Initial residual = 9.95946e-11, Final residual = 9.95946e-11, No Iterations 0
ExecutionTime = 171.38 s  ClockTime = 204 s

Time = 5966

DILUPBiCGStab:  Solving for omega, Initial residual = 9.95946e-11, Final residual = 9.95946e-11, No Iterations 0
ExecutionTime = 171.41 s  ClockTime = 204 s

Time = 5967

DILUPBiCGStab:  Solving for omega, Initial residual = 9.95946e-11, Final residual = 9.95946e-11, No Iterations 0
ExecutionTime = 171.44 s  ClockTime = 204 s

Time = 5968

DILUPBiCGStab:  Solving for omega, Initial residual = 9.95946e-11, Final residual = 9.95946e-11, No Iterations 0
ExecutionTime = 171.46 s  ClockTime = 204 s

Time = 5969

DILUPBiCGStab:  Solving for omega, Initial residual = 9.95946e-11, Final residual = 9.95946e-11, No Iterations 0
ExecutionTime = 171.49 s  ClockTime = 204 s

Time = 5970

DILUPBiCGStab:  Solving for omega, Initial residual = 9.95946e-11, Final residual = 9.95946e-11, No Iterations 0
ExecutionTime = 171.52 s  ClockTime = 204 s

Time = 5971

DILUPBiCGStab:  Solving for omega, Initial residual = 9.95946e-11, Final residual = 9.95946e-11, No Iterations 0
ExecutionTime = 171.54 s  ClockTime = 204 s

Time = 5972

DILUPBiCGStab:  Solving for omega, Initial residual = 9.95946e-11, Final residual = 9.95946e-11, No Iterations 0
ExecutionTime = 171.57 s  ClockTime = 204 s

Time = 5973

DILUPBiCGStab:  Solving for omega, Initial residual = 9.95946e-11, Final residual = 9.95946e-11, No Iterations 0
ExecutionTime = 171.6 s  ClockTime = 204 s

Time = 5974

DILUPBiCGStab:  Solving for omega, Initial residual = 9.95946e-11, Final residual = 9.95946e-11, No Iterations 0
ExecutionTime = 171.63 s  ClockTime = 204 s

Time = 5975

DILUPBiCGStab:  Solving for omega, Initial residual = 9.95946e-11, Final residual = 9.95946e-11, No Iterations 0
ExecutionTime = 171.65 s  ClockTime = 204 s

Time = 5976

DILUPBiCGStab:  Solving for omega, Initial residual = 9.95946e-11, Final residual = 9.95946e-11, No Iterations 0
ExecutionTime = 171.68 s  ClockTime = 204 s

Time = 5977

DILUPBiCGStab:  Solving for omega, Initial residual = 9.95946e-11, Final residual = 9.95946e-11, No Iterations 0
ExecutionTime = 171.7 s  ClockTime = 204 s

Time = 5978

DILUPBiCGStab:  Solving for omega, Initial residual = 9.95946e-11, Final residual = 9.95946e-11, No Iterations 0
ExecutionTime = 171.72 s  ClockTime = 204 s

Time = 5979

DILUPBiCGStab:  Solving for omega, Initial residual = 9.95946e-11, Final residual = 9.95946e-11, No Iterations 0
ExecutionTime = 171.75 s  ClockTime = 204 s

Time = 5980

DILUPBiCGStab:  Solving for omega, Initial residual = 9.95946e-11, Final residual = 9.95946e-11, No Iterations 0
ExecutionTime = 171.77 s  ClockTime = 204 s

Time = 5981

DILUPBiCGStab:  Solving for omega, Initial residual = 9.95946e-11, Final residual = 9.95946e-11, No Iterations 0
ExecutionTime = 171.8 s  ClockTime = 205 s

Time = 5982

DILUPBiCGStab:  Solving for omega, Initial residual = 9.95946e-11, Final residual = 9.95946e-11, No Iterations 0
ExecutionTime = 171.83 s  ClockTime = 205 s

Time = 5983

DILUPBiCGStab:  Solving for omega, Initial residual = 9.95946e-11, Final residual = 9.95946e-11, No Iterations 0
ExecutionTime = 171.85 s  ClockTime = 205 s

Time = 5984

DILUPBiCGStab:  Solving for omega, Initial residual = 9.95946e-11, Final residual = 9.95946e-11, No Iterations 0
ExecutionTime = 171.89 s  ClockTime = 205 s

Time = 5985

DILUPBiCGStab:  Solving for omega, Initial residual = 9.95946e-11, Final residual = 9.95946e-11, No Iterations 0
ExecutionTime = 171.91 s  ClockTime = 205 s

Time = 5986

DILUPBiCGStab:  Solving for omega, Initial residual = 9.95946e-11, Final residual = 9.95946e-11, No Iterations 0
ExecutionTime = 171.94 s  ClockTime = 205 s

Time = 5987

DILUPBiCGStab:  Solving for omega, Initial residual = 9.95946e-11, Final residual = 9.95946e-11, No Iterations 0
ExecutionTime = 171.97 s  ClockTime = 205 s

Time = 5988

DILUPBiCGStab:  Solving for omega, Initial residual = 9.95946e-11, Final residual = 9.95946e-11, No Iterations 0
ExecutionTime = 172 s  ClockTime = 205 s

Time = 5989

DILUPBiCGStab:  Solving for omega, Initial residual = 9.95946e-11, Final residual = 9.95946e-11, No Iterations 0
ExecutionTime = 172.04 s  ClockTime = 205 s

Time = 5990

DILUPBiCGStab:  Solving for omega, Initial residual = 9.95946e-11, Final residual = 9.95946e-11, No Iterations 0
ExecutionTime = 172.07 s  ClockTime = 205 s

Time = 5991

DILUPBiCGStab:  Solving for omega, Initial residual = 9.95946e-11, Final residual = 9.95946e-11, No Iterations 0
ExecutionTime = 172.1 s  ClockTime = 205 s

Time = 5992

DILUPBiCGStab:  Solving for omega, Initial residual = 9.95946e-11, Final residual = 9.95946e-11, No Iterations 0
ExecutionTime = 172.13 s  ClockTime = 205 s

Time = 5993

DILUPBiCGStab:  Solving for omega, Initial residual = 9.95946e-11, Final residual = 9.95946e-11, No Iterations 0
ExecutionTime = 172.15 s  ClockTime = 205 s

Time = 5994

DILUPBiCGStab:  Solving for omega, Initial residual = 9.95946e-11, Final residual = 9.95946e-11, No Iterations 0
ExecutionTime = 172.18 s  ClockTime = 205 s

Time = 5995

DILUPBiCGStab:  Solving for omega, Initial residual = 9.95946e-11, Final residual = 9.95946e-11, No Iterations 0
ExecutionTime = 172.2 s  ClockTime = 205 s

Time = 5996

DILUPBiCGStab:  Solving for omega, Initial residual = 9.95946e-11, Final residual = 9.95946e-11, No Iterations 0
ExecutionTime = 172.23 s  ClockTime = 205 s

Time = 5997

DILUPBiCGStab:  Solving for omega, Initial residual = 9.95946e-11, Final residual = 9.95946e-11, No Iterations 0
ExecutionTime = 172.25 s  ClockTime = 205 s

Time = 5998

DILUPBiCGStab:  Solving for omega, Initial residual = 9.95946e-11, Final residual = 9.95946e-11, No Iterations 0
ExecutionTime = 172.29 s  ClockTime = 205 s

Time = 5999

DILUPBiCGStab:  Solving for omega, Initial residual = 9.95946e-11, Final residual = 9.95946e-11, No Iterations 0
ExecutionTime = 172.31 s  ClockTime = 205 s

Time = 6000

DILUPBiCGStab:  Solving for omega, Initial residual = 9.95946e-11, Final residual = 9.95946e-11, No Iterations 0
ExecutionTime = 172.48 s  ClockTime = 206 s

yPlus yPlus1 write:
    writing field yPlus
    patch bottom y+ : min = 0.0403774, max = 0.846409, average = 0.439463
End

Finalising parallel run
